352
 i =   103300, time =    51650.000, E =        99.8371738506
  H        10.3930964960        5.0204570607       31.4593213974
  C        10.8183325862        5.8777905547       32.0241329269
  H        10.0817750422        6.6463081200       32.3284845920
  C        11.9140287323        6.3835861409       31.0995840428
  C        11.5670639359        5.4256630581       33.2946178493
  C        11.4359558729        6.7208541692       29.6699424658
  H        12.5835368679        7.1573477465       31.4818539417
  H        12.6715694697        5.5360284278       30.9893592539
  H        11.9359168678        4.3621803488       33.2949561382
  H        12.3636665961        6.1322480373       33.4686786022
  H        10.8658689563        5.5208633719       34.1137785457
  C        10.9125623638        5.6007054228       28.7799663362
  H        12.2231392180        7.1861604641       29.1729165684
  H        10.5310304634        7.4260617794       29.8409094018
  C        11.2358031673        5.7613639052       27.2698873380
  H        11.2461189271        4.6911647810       29.2107146806
  H         9.8192774237        5.5221306650       28.8428880073
  C        10.2597747425        5.0118486474       26.4650343016
  H        12.2076831313        5.3360184471       27.0253377746
  H        11.1973601392        6.9055021487       26.9553393192
  C         9.1052663402        5.9500903158       26.1463041696
  H        10.7362196564        4.7856094460       25.5062781987
  H         9.8590892333        4.1327541363       26.9792478605
  C         7.8659679881        5.2378613612       25.5313984634
  H         8.9244303418        6.5723859935       27.0478488539
  H         9.5177626019        6.7539935408       25.4800844313
  C         7.5281032954        3.9481795955       26.3263872122
  C         8.2051130904        4.4883044277       24.3029066853
  C         6.7523763162        6.3653005925       25.3738262292
  C         7.5439770483        2.8274287238       25.4788313474
  C         7.1088275359        3.6166764002       27.6217631564
  C         8.0747258612        3.1661901908       24.2417255414
  C         8.6912169916        4.9848471561       23.0691208848
  H         7.0941670210        7.1497133413       24.7304328574
  H         6.4511939766        6.7608319297       26.3814278287
  C         5.4879970679        5.7165951585       24.7638475748
  S         6.9104324185        1.4182243563       26.2719826832
  C         6.8319644820        2.2731135581       27.7767015864
  H         6.9587516586        4.4000770258       28.3672263368
  C         8.4421594247        2.3931313908       23.1701575825
  H         8.7289184676        6.0094158537       22.8335030246
  C         9.0301925404        4.2617479040       21.9209746561
  H         5.7518222648        5.3748150117       23.7125090102
  H         5.3535693539        4.8302141446       25.3650189837
  C         4.3182004629        6.6947719638       24.7612922056
  C         6.3536579058        1.5880497004       29.0372604169
  C         8.9175082791        2.8864160952       21.9438898790
  H         8.3615532338        1.2972950808       23.1493350293
  C         9.4888155317        4.5735395003       20.6806957429
  H         3.5582110899        6.4367449853       24.0160358386
  H         4.8275884642        7.6186162937       24.4204877819
  C         3.6236444862        6.7675252497       26.0864289068
  C         6.2980409995        0.2172172889       29.2505317166
  C         5.8329791978        2.4308038098       30.2023598946
  C         9.5233882367        2.1709925181       20.7343496564
  C         9.6961078153        3.4418993492       19.9498908389
  S         9.6385314529        6.0329253716       19.8354601742
  H         2.8820513319        7.6107060639       26.0441698705
  H         4.3892482896        7.1356466033       26.8292564458
  C         2.9761743499        5.5027000317       26.6381890894
  N         6.5645120547       -0.7878531303       28.3532019902
  C         5.9011551190       -0.3040956581       30.4289021055
  C         5.3802022266        1.8550689973       31.3854436681
  H         5.7441604380        3.4895534376       30.1306029811
  C         8.4523130507        1.2429350764       20.1370404033
  C        10.8595608996        1.4918329252       20.9963575506
  C         9.9547485326        3.7671617345       18.5608871629
  C         9.8973409815        5.1233834285       18.4089514958
  H         2.1744488678        5.2752198860       26.0356691498
  H         3.5361722178        4.5982312657       26.3922221320
  C         2.4691096993        5.5504825002       28.0596874489
  S         6.5393842836       -2.2469763984       29.1058902509
  N         6.0591358928       -1.6909249514       30.5119437538
  C         5.4322866157        0.3932919762       31.5803090875
  H         4.9793066316        2.5453246322       32.1027997685
  H         8.0565531772        0.5864575327       20.8786471131
  H         8.8127222153        0.5542260039       19.4292932359
  C         7.2668482945        1.9900446513       19.5041262023
  H        11.2018720820        0.9026704161       20.1141226108
  H        10.6359084405        0.7051474556       21.7077679624
  C        12.0699826604        2.3217349250       21.4469626301
  H        10.3188212986        3.0222379370       17.8405863465
  C        10.0677771364        5.8481925131       17.0806213465
  H         1.5934821476        4.9558986878       28.1301736099
  H         2.1648495807        6.6025169521       28.3515604602
  C         3.5721031937        5.1606998067       29.0875301929
  C         5.2955362589       -0.3993466149       32.7690628287
  H         7.6184457117        2.4725862939       18.6143160591
  H         6.9631994739        2.7991529340       20.0551167576
  C         6.0331835642        1.2168518025       19.3184985472
  H        11.8695659744        2.9295456661       22.3333848251
  H        12.4265598150        3.0404535186       20.7461834051
  C        13.2922447293        1.4681474542       21.6365706420
  C        10.1881406967        7.2592963755       16.9540238533
  C        10.3567596046        5.0742264116       15.8774755257
  H         3.8013058703        4.1027150838       28.9037995133
  H         4.3919702554        5.7546880297       28.7697527705
  C         3.1692532944        5.4902015464       30.5479862081
  H         5.2659885072       -1.4698644883       32.7263985813
  C         4.9608043985        0.0634623288       33.9726343303
  H         5.4673867338        1.1316018619       20.2105710584
  H         6.2751512351        0.1896305769       18.9608810721
  C         5.1394108338        1.7863901214       18.1974707461
  H        13.1092264471        0.8649817618       22.5500632830
  H        13.3513871929        0.7086459174       20.9111417773
  C        14.4938396275        2.3634256608       21.7288986968
  N         9.9426852050        8.1263446288       18.0282070580
  C        10.5010524127        7.9025948237       15.8438572358
  C        10.7416878516        5.7186568910       14.7362924905
  H        10.3352398253        4.0001038899       15.9637672356
  H         3.8048124017        5.0603502355       31.3302217609
  H         3.2360937722        6.5549415196       30.6412623492
  H         2.1030610753        5.1555129675       30.6579288373
  S         4.6775765647        1.7169659475       34.5678535823
  C         4.9164083676       -0.8990512281       35.1064134885
  H         5.2244471325        2.8510782621       17.9420967866
  H         5.4398324045        1.4049418048       17.2250123213
  C         3.7174990508        1.2791424392       18.2129213541
  H        14.2552224935        3.2540305319       22.4427739056
  H        14.5498666575        2.7717822033       20.7582739023
  C        15.7041034429        1.6623086098       22.2396885000
  S         9.9855106776        9.6483520115       17.4890254320
  N        10.6178684581        9.3004533431       16.0043975205
  C        10.7447472065        7.2566868113       14.6421123320
  H        10.9386103603        5.1157049814       13.8718305462
  C         4.5089289949        0.9893674195       36.1856897948
  N         4.6161313590       -0.3396900966       36.3221010547
  O         5.0374683878       -2.1516501375       34.9323816907
  H         3.1648586725        1.6320579421       17.3227354882
  H         3.1924517876        1.6865258906       19.0451624229
  C         3.7023344531       -0.2788243426       18.4107451433
  H        15.4477736330        1.1935619296       23.2411489301
  H        15.8497029131        0.8667810004       21.5347059229
  C        16.9418674623        2.5946384483       22.3438729364
  C        11.0804941829        8.1176017607       13.5497903380
  S         4.0780416149        1.8542320782       37.6147661695
  C         4.6449286365       -1.1008699784       37.5604230575
  H         4.4551315016       -0.6361037732       17.7244716973
  H         4.0296608696       -0.6207781832       19.4357031521
  C         2.3098180675       -0.8830773983       18.1577112288
  H        16.7451398309        3.4605716834       22.9812031427
  H        17.1069020346        2.9202513646       21.3210780472
  C        18.2141165185        1.9138338160       22.9300591919
  H        10.6833274080        9.1227874978       13.6242803657
  C        11.5721849123        7.8043446743       12.2561552595
  H         3.9089157179       -0.7633386049       38.3435312172
  H         4.2540626987       -2.1081316221       37.4125399653
  C         6.1231808154       -1.2549182794       38.0024150577
  H         1.5588787535       -0.1073450437       18.0746068323
  H         2.1380013159       -1.3900845591       19.1090631952
  C         2.2943877416       -1.8188674966       16.9496000618
  H        18.5556474379        1.2097896343       22.2071104765
  H        19.0094507607        2.6307067568       22.8365730012
  C        18.1876494886        1.4267263977       24.3316512523
  S        12.0707300047        6.2416592917       11.7190524181
  C        11.6792154999        8.8200495332       11.2042579808
  H         6.3297405425       -1.7868472691       38.9364696250
  H         6.6817289636       -1.6596737153       37.1192295689
  H         6.5403595670       -0.2743870836       38.1242551003
  H         2.9719723552       -2.6606601482       16.9894569792
  H         2.4389571813       -1.3643138255       16.0204385958
  H         1.2879974054       -2.1560092922       16.8969872940
  H        19.1825629031        0.9285911908       24.4961674704
  H        17.4059941990        0.7119642316       24.5802297871
  H        17.9665719875        2.2885785234       24.9729989145
  C        12.5909900246        6.9732289901       10.1980243638
  N        12.3476937495        8.2887789893       10.1641998673
  O        11.2861779004        9.9612899061       11.2953167448
  S        12.8134891366        6.1197144901        8.6732591109
  C        12.4872159344        9.0903818970        8.9368883328
  H        12.7183757146       10.0977625769        9.2794057013
  H        13.2666034848        8.7560641336        8.2925873499
  C        11.2823570391        9.1556362127        8.0367367928
  H        11.7239367115        9.3351834544        7.0636648159
  H        10.8273748363        8.1998736739        7.9830667702
  H        10.5533120875        9.9498589650        8.3448046623
  H         2.8153423948        3.1310598656       12.3674807279
  C         3.1248103477        2.1188407216       12.4612669898
  H         2.3975855598        1.5424172018       11.9685531367
  C         4.3674017066        2.0135411381       11.6793999207
  C         3.2474554466        1.6934258463       13.9216958997
  C         4.0009955208        2.0810237497       10.1694329366
  H         4.7679248491        1.0099055621       11.9216064446
  H         5.1050398698        2.7513713024       12.0151066241
  H         2.7254038432        2.3805270369       14.6610246016
  H         4.2825083892        1.7716458864       14.2720703594
  H         2.7282455604        0.8092489832       14.1881567345
  C         4.8839156919        1.0908450886        9.3412830808
  H         3.0658723600        1.7103401384        9.8982788358
  H         4.1397455850        3.1197901660        9.9329020633
  C         5.6209881927        1.6775598040        8.1383078992
  H         4.3129052978        0.2416664917        8.9901611412
  H         5.6417100905        0.7457842730       10.0724538098
  C         6.9206501586        2.5032324636        8.4347990230
  H         5.0234258556        2.3382033964        7.5750777497
  H         5.8542447601        0.8476949375        7.4850902789
  C         8.1628016174        1.7724655395        9.0279235781
  H         7.2233480200        2.9764495823        7.4699542112
  H         6.6524944981        3.1799877857        9.2068525295
  C         9.3922748465        2.6487876427        9.1523189403
  H         8.3820923771        0.8610130659        8.4853123092
  H         7.8568470746        1.4672795755       10.0226488131
  C         8.9687863281        3.9571598733        9.8214612468
  C         9.8415490844        3.3178857547        7.9362121602
  C        10.5223722634        1.8207586069        9.8325007210
  C         9.2852588783        5.0441384964        9.0046242096
  C         8.4373268543        4.3727711055       11.0382833853
  C         9.8226191696        4.6446585463        7.7978360766
  C        10.3077958477        2.6861777227        6.7718597117
  H        10.1092044690        1.4600547881       10.8116978358
  H        10.6479477979        0.8851787619        9.3057929113
  C        11.8646656127        2.4670811843       10.0578167735
  S         8.7886577626        6.5281068590        9.6709479297
  C         8.3441314858        5.7470272655       11.1425527008
  H         8.1126792563        3.6167368221       11.7973697372
  C        10.2098715696        5.2139735504        6.6541828704
  H        10.2805810646        1.5675840810        6.8503771697
  C        10.7876964564        3.2247303649        5.6077376275
  H        11.8003178323        3.4815028896       10.4550623396
  H        12.2731953859        2.6274365979        8.9672124062
  C        12.7740992968        1.7538226127       11.0471026573
  C         7.8388173463        6.4456403041       12.3827819233
  C        10.7136103270        4.5545256654        5.4796746753
  H        10.0575138396        6.2980447756        6.6131618098
  C        11.1639609824        2.7349074699        4.3610199202
  H        13.7124528470        2.2377568468       11.0017074608
  H        12.8070787697        0.7612694798       10.6920839140
  C        12.2990761561        1.7664507078       12.5281353864
  C         7.8839286451        7.8525409599       12.6344326287
  C         7.4217246392        5.6282693129       13.5601535881
  C        11.1237955147        5.2084014915        4.1812724683
  C        11.3537216533        3.7992377064        3.5191640867
  S        11.2953040196        1.1840926153        3.6316993475
  H        11.7402268320        2.7226123225       12.7094014822
  H        11.5050667029        1.0111581005       12.5955945847
  C        13.3975813027        1.5197749547       13.5974982178
  N         8.2672505553        8.8028513072       11.7026843591
  C         7.5666819159        8.4484311091       13.8536810752
  C         7.0422997849        6.1860470786       14.7719609826
  H         7.1759061757        4.5703061674       13.4973022685
  C        12.3934916364        6.0664554369        4.3444868627
  C         9.9755436556        5.9652190426        3.4034718677
  C        11.4465506581        3.3324624579        2.2161144314
  C        11.5388384996        1.9882859225        2.1190139650
  H        14.3320221518        2.1203329534       13.3670869763
  H        13.6242454336        0.5019716962       13.4772581432
  C        12.8359425850        1.9313345169       14.9437151864
  S         8.1926443432       10.2857795935       12.3600708347
  N         7.7573467059        9.8271092549       13.8478075581
  C         7.0754982561        7.6760030941       14.9383252063
  H         6.8253085650        5.5561620463       15.6386987452
  H        12.1376944136        6.9144375648        4.9707713060
  H        12.6067821468        6.5624218919        3.3240956506
  C        13.6165091694        5.2255156717        4.7271403145
  H         9.5989315394        6.8470988700        3.9934581318
  H        10.4046503500        6.4178193042        2.4935781734
  C         8.7842985330        5.0749233492        2.9933770501
  H        11.5826846830        4.1150393722        1.4622575324
  C        11.8879096899        1.2742981575        0.8719165946
  H        12.2402732928        2.8759207930       14.8786837092
  H        12.1426774081        1.1833485879       15.2884318003
  C        13.9839721994        1.9965421856       15.9900212108
  C         6.9482862794        8.3384343255       16.2299461315
  H        13.5739972147        4.8275229578        5.7705883049
  H        13.7163853654        4.3845253687        4.1019229042
  C        14.9344350920        5.9861368076        4.7525705340
  H         8.1460540771        4.6709812244        3.7817617876
  H         9.0643382686        4.0923091405        2.5979861526
  C         7.7340643481        5.8033276430        2.1148853832
  C        11.9730300597       -0.1626716512        0.7329733338
  C        12.0570401856        2.0373365232       -0.3609801984
  H        14.6507685854        2.8045898105       15.6632907803
  H        14.5986900166        1.1370367396       16.0974090471
  C        13.5792369503        2.3334935794       17.4163143092
  H         7.3123355347        9.3261679626       16.2514099947
  C         6.6753017099        7.9134401163       17.5159457443
  H        14.6795163743        6.8570129978        5.4030097145
  H        15.0071825689        6.2520459744        3.6820529566
  C        16.1441471012        5.2743587878        5.0971188509
  H         7.5702677086        6.7107704204        2.6547883585
  H         8.0712488799        6.1482412841        1.1250960572
  C         6.3937154147        5.0810786998        1.8960339655
  N        11.7078664858       -1.0941712697        1.7055881077
  C        12.3054007446       -0.7345090557       -0.4955250958
  C        12.4349298593        1.4663340396       -1.5438484903
  H        12.0389607498        3.1274355521       -0.3397202091
  H        13.9962282994        3.2755379388       17.7993503515
  H        13.7617700798        1.5623053694       18.1422576113
  H        12.4876709993        2.5746509302       17.3671971343
  S         6.1562245835        6.3225925453       17.9376090259
  C         6.5885511813        8.8670815481       18.6185794996
  H        15.9519728086        4.2410962811        4.8377771801
  H        17.0138183321        5.6037444752        4.5619082334
  C        16.3832100698        5.4872688264        6.6200666098
  H         6.3485628574        4.2201483371        2.5756127364
  H         6.3625054175        4.6961376483        0.8630597524
  C         5.2045300449        6.0138334553        2.1626581029
  S        11.9584422736       -2.6267825685        1.1376463326
  N        12.3089305580       -2.1329980959       -0.4512726004
  C        12.4805014598        0.0186201328       -1.6974335432
  H        12.5073921222        2.1570985547       -2.3666348452
  C         6.1781541212        6.8344478105       19.6157378565
  N         6.2779235318        8.1572696630       19.7818002918
  O         6.6130380554       10.0447788153       18.4503164276
  H        16.7725936475        6.5399497820        6.8043356449
  H        15.3948783079        5.3426346641        7.1330094273
  C        17.4226198090        4.6218806691        7.2306401379
  H         4.3139096354        5.4016723425        2.2724607674
  H         5.2856518892        6.5418386878        3.1109102418
  C         4.9039717313        6.9707859106        0.9462487570
  C        12.7271123636       -0.7303715707       -2.8573053569
  S         6.1079903487        5.8506285396       21.0478707606
  C         6.3050948088        8.8475818538       21.0663205069
  H        17.0268857078        4.2381682583        8.2019008670
  H        17.5578573684        3.7201777585        6.6711477829
  C        18.7451815724        5.3202198293        7.5908540779
  H         4.3540274037        6.3936615828        0.1968422450
  H         5.8315811574        7.1755775481        0.4043262991
  C         4.1294049064        8.2217431165        1.4743562564
  H        12.4506222362       -1.7700394491       -2.8789806550
  C        13.2738862454       -0.3578774103       -4.0390313392
  H         5.7661187852        8.2415330676       21.8301514132
  H         5.9464368439        9.8492509687       21.0215616346
  C         7.6872624393        9.0565566954       21.6770880179
  H        19.1651221064        4.8754472640        8.5049677453
  H        18.4483142319        6.3033149529        7.9169899609
  C        19.8251695828        5.3624958586        6.5001590563
  H         3.5885009620        8.5320331976        0.6108319805
  H         3.4189999105        7.7226544798        2.1742752978
  C         4.9434477561        9.3994675335        2.0888849992
  S        13.7462800301        1.2359047904       -4.5306495281
  C        13.5418938993       -1.4482514969       -5.0267895001
  H         7.6288137247        9.5791758855       22.6550960249
  H         8.1800471614        9.7546034093       20.9670881241
  H         8.2530250423        8.1855452874       21.8000927506
  H        19.8196344300        4.3748384058        5.9578004555
  H        19.6588811545        6.0742928979        5.6707496877
  H        20.7757348962        5.4975738873        6.8642690106
  H         5.8027554119        9.6893108019        1.3698528897
  H         4.2884118730       10.1888422649        2.2795167454
  H         5.2787255559        9.2938666010        3.1167089748
  C        14.3542070724        0.4451359648       -6.0355973894
  N        14.0587100952       -0.8843056743       -6.0861952266
  O        13.2311511633       -2.6334443451       -4.9289923811
  S        14.9589239701        1.4209079475       -7.4557493137
  C        14.1582162634       -1.7171127665       -7.3305837201
  H        14.4205928286       -2.8025665877       -7.0584955396
  H        14.8351978539       -1.2855704808       -8.1006097561
  C        12.7457446912       -1.7114016747       -8.0009067348
  H        12.2140478740       -2.5863757926       -7.6096326719
  H        12.6967077496       -1.8892930135       -9.1080565271
  H        12.0659784070       -0.9139936606       -7.6580232466
