352
 i =    96800, time =    48400.000, E =        98.3202018424
  H        12.1000262528        5.8433623800       32.5131688657
  C        10.9957615358        5.5546215185       32.5462832823
  H        10.9597394012        4.5311222393       32.2745748636
  C        10.3944870546        6.3092433500       31.4208357153
  C        10.4505454298        5.7379322488       33.8879663842
  C        11.1882008071        6.1204412156       30.1180357306
  H         9.3106615291        6.1686516896       31.4056024738
  H        10.4480053749        7.3049091334       31.8000569532
  H         9.8705129785        4.8648926127       34.0208807187
  H        11.2605432441        5.7796681694       34.6139176808
  H         9.7917904838        6.6405570057       33.9338281981
  C        10.5499707506        5.3257868415       29.0792653006
  H        12.1479083120        5.6826416285       30.2234884699
  H        11.3009927675        7.1131775696       29.6333309382
  C        10.7719740339        5.8320789524       27.6174031460
  H        10.9062006365        4.3104487992       29.0638481175
  H         9.5108204996        5.1115284037       29.4119141948
  C         9.8244682646        5.2106485158       26.5858130337
  H        11.7929196992        5.4928934843       27.3587117372
  H        10.7740872784        6.9102416687       27.6126249935
  C         8.5632002298        6.0453821743       26.2987539178
  H        10.3356780534        5.1600419062       25.5655923346
  H         9.8039051900        4.0684161818       26.8437397879
  C         7.4226804412        5.3459332700       25.5792642441
  H         8.0830285686        6.3946901962       27.1884191668
  H         8.8041292112        6.9012276341       25.6816082899
  C         7.0816086431        3.9974735908       26.2381261402
  C         7.8882396340        4.6578453580       24.3458039752
  C         6.0800049761        6.1692656426       25.3237249480
  C         7.1456490199        2.9252456920       25.3848451577
  C         6.4639215532        3.5328789614       27.4285962069
  C         7.7298170442        3.3290682767       24.1666238028
  C         8.4404575053        5.3003324615       23.2119180361
  H         6.2883543049        7.0879754145       24.7537500481
  H         5.7464322341        6.5066214170       26.2759529919
  C         4.8323159601        5.5056570492       24.7986656262
  S         6.7590833844        1.3247737012       26.0190169241
  C         6.3075345188        2.1824433704       27.4632731107
  H         6.3536911985        4.2706028538       28.2034281553
  C         8.0678776037        2.7576504869       22.9677876367
  H         8.5612703720        6.3753381329       23.4298523282
  C         8.7061656227        4.6836929740       22.0363376668
  H         5.0737003281        5.1786696479       23.7804884394
  H         4.5954738853        4.5924184887       25.2494499086
  C         3.6327479429        6.4086410037       24.7865106333
  C         5.7419409283        1.4838410685       28.6612210315
  C         8.5710027009        3.3654746855       21.8164713703
  H         8.0691791048        1.6945281517       22.9719172693
  C         9.0889092071        5.0777886735       20.8138962461
  H         2.8978747737        5.9801727465       24.0677603260
  H         3.8238030027        7.3526150112       24.2703484468
  C         2.8472389232        6.6255839591       26.0714483248
  C         5.8582205449        0.1402241572       28.9381079754
  C         5.3338188629        2.3377378417       29.8489752943
  C         9.1054660890        2.6568985282       20.5441490117
  C         9.3750451725        4.0087915437       19.9260574989
  S         9.1840439478        6.6103547237       20.0108484154
  H         1.9177951497        7.1247985570       25.9058295034
  H         3.3822073590        7.3836679580       26.6159093121
  C         2.5734190531        5.3121491995       26.8511927583
  N         6.2601850182       -0.8680464030       28.0185570417
  C         5.5330739496       -0.4151205428       30.2093597674
  C         4.9544657669        1.8319870116       31.0781085460
  H         5.1102229817        3.3571579117       29.7009540408
  C         8.0477952805        1.9151993723       19.6531876114
  C        10.4745630273        1.9875284674       20.6087835698
  C         9.8119335148        4.4392337220       18.6408132212
  C         9.6944177420        5.8363987686       18.5947731443
  H         2.0066144527        4.5276957632       26.2823730210
  H         3.4517826238        4.7505995464       27.0080006889
  C         1.8812848901        5.5065453350       28.1680587440
  S         6.2187175229       -2.2907810751       28.7848241527
  N         5.7953335467       -1.8048405138       30.2159094704
  C         5.0956945759        0.3728463255       31.3177283455
  H         4.5540283611        2.4524329707       31.8414934817
  H         7.9463410890        0.9503503957       20.1378828566
  H         8.5297827940        1.8113967877       18.6824316642
  C         6.7030473714        2.6449195009       19.5747478319
  H        10.9796585054        2.0865076665       19.6690439592
  H        10.3204637708        0.9066048816       20.7139862173
  C        11.4242474985        2.6746197735       21.5121832631
  H        10.0559559516        3.7222131005       17.8836175907
  C         9.9112581937        6.6440318437       17.3628875246
  H         1.4736361687        4.5048295966       28.3108869267
  H         1.0093709553        6.1477017579       28.0560936845
  C         2.7013539169        5.8695766375       29.3495979011
  C         4.8957293734       -0.3338770214       32.5087416327
  H         6.7864939336        3.7449947553       19.5667025156
  H         6.1642902159        2.4130504269       20.5319959152
  C         5.7655423840        2.2453505520       18.4308753076
  H        10.9913837641        2.7457709821       22.4554255133
  H        11.6953765323        3.6617893189       21.1194783033
  C        12.8070823524        1.9442245409       21.6317218105
  C        10.0870625805        7.9694253766       17.1717497714
  C         9.8895874512        5.8931647709       16.0454905244
  H         3.3731919919        5.0591063751       29.6485756831
  H         3.4554447028        6.6030745776       29.0990937996
  C         1.8389623809        6.1231203398       30.6239852639
  H         4.8230578214       -1.4286410123       32.4453131706
  C         4.6175724802        0.1216534066       33.7734023824
  H         5.6264271442        1.1919358036       18.3803957761
  H         6.2340597374        2.3278041594       17.4766316469
  C         4.4921229143        3.0415584981       18.3536859617
  H        12.7572470603        1.2784422164       22.4411455992
  H        13.0068683388        1.1843955846       20.8843138700
  C        14.0251828650        2.8750548461       21.8444921438
  N         9.9796289813        8.8537359804       18.1736186777
  C        10.3998240155        8.5840184431       15.9604325613
  C        10.2547014851        6.5225968463       14.8182587800
  H         9.6234230383        4.8830466593       16.0634997110
  H         2.2164115195        5.5443213896       31.5110869521
  H         1.8047921578        7.1683963649       30.8530226596
  H         0.8531833683        5.7482263522       30.3867730725
  S         4.3019344314        1.7594910115       34.1865491930
  C         4.5375659949       -0.8666948574       34.8845054777
  H         4.2713576231        3.2899447352       19.3446595468
  H         4.7534019316        4.0305476625       18.0509613671
  C         3.3095715320        2.4764243137       17.6008788761
  H        13.7820307280        3.6333733351       22.6168337931
  H        14.1980984011        3.4318448495       20.9710468462
  C        15.2127457392        2.0883953960       22.3886654003
  S        10.2081634472       10.4195549695       17.6233520857
  N        10.4186597287        9.9948495499       16.0963747351
  C        10.5680420553        7.9508399952       14.7297778359
  H        10.2992982360        5.8376608340       14.0458282940
  C         4.0755608668        1.2160492035       35.7913831394
  N         4.1463076449       -0.1371013222       35.9512292551
  O         4.7128983190       -2.0669184696       34.7478266168
  H         3.5931775343        2.1984425903       16.5268120159
  H         2.4953801346        3.1057138314       17.4485219454
  C         2.6128322376        1.2645865773       18.3048025247
  H        14.9865160952        1.7556706993       23.4417963453
  H        15.3758666235        1.2158811857       21.7311644184
  C        16.4286195456        2.9512807842       22.4566711774
  C        10.8954615278        8.6870824479       13.5234798555
  S         3.8512512044        2.1142096948       37.2964046084
  C         4.0744284856       -0.8704075919       37.2281173805
  H         3.3085399694        1.0596002628       19.0776576425
  H         1.6189267181        1.6302072377       18.6432801937
  C         2.3021571849        0.0936935669       17.4123608432
  H        16.3464258626        3.6755542141       23.2650775337
  H        16.6049795769        3.4003251360       21.4664075376
  C        17.6589756487        2.1974958640       22.9246074821
  H        10.8745827789        9.7792925486       13.6371310790
  C        11.4179369750        8.1804070645       12.3488211656
  H         3.3483464750       -0.3764507831       37.9122200304
  H         3.5787153885       -1.8198765513       37.0984701127
  C         5.4355387680       -1.0290627843       37.9626897229
  H         3.2594489864       -0.1016438097       16.9013295326
  H         1.5830351028        0.3411027114       16.6393979023
  C         1.7660881504       -1.1092839034       18.0338811950
  H        17.8268703387        1.2655501099       22.3601783585
  H        18.6113459496        2.7991971778       22.8744324102
  C        17.5274183965        1.7894113627       24.4395931869
  S        11.8944849188        6.5670618917       11.9046946345
  C        11.7213112203        9.1753362072       11.3375848369
  H         6.2613006098       -1.4031751204       37.3637619428
  H         5.7333617349       -0.1044444260       38.4282276689
  H         5.4002810986       -1.7169175314       38.7743126314
  H         2.5681560631       -1.7965800817       18.3033493536
  H         1.1218522763       -1.6766205172       17.4158559244
  H         1.2294709422       -0.8956732466       18.9269096380
  H        18.2967365503        0.9838510982       24.6088575761
  H        16.5444266890        1.4055928854       24.7845193811
  H        17.7483690368        2.6475786057       24.9679360343
  C        12.3626786365        7.2609876847       10.3490895105
  N        12.3133960438        8.6174447125       10.3010733627
  O        11.5941769469       10.3872702455       11.4955309392
  S        12.8811582357        6.2971985346        8.9484115340
  C        12.6140714869        9.4293039098        9.1014650569
  H        12.9534590621       10.4351455319        9.4175031709
  H        13.5332983246        9.0766053637        8.6670395204
  C        11.3794863251        9.3750029949        8.2089638183
  H        10.6300241955       10.1543126518        8.4380196004
  H        11.6443678384        9.4928384640        7.1174840453
  H        10.9982648849        8.2974193463        8.2973961241
  H         2.8761628506        4.0762150472       11.6417191449
  C         2.9231764347        3.0705871467       12.0505525287
  H         1.9054020236        2.7153993192       11.8650465844
  C         3.8623787551        2.1345950155       11.3259191006
  C         3.1009003643        2.9032313119       13.5717725772
  C         3.8474952051        2.2237100625        9.8375450572
  H         3.5063192329        1.0986999034       11.5591314210
  H         4.8958002016        2.2691661689       11.6660366829
  H         4.1542942692        2.9507620319       13.7651758478
  H         2.6340879253        1.9827637829       13.8997171767
  H         2.6025225675        3.6489693064       14.0959302846
  C         4.7312267151        1.1155725458        9.1294001231
  H         2.8396232382        2.1378426485        9.5626161944
  H         4.0330721848        3.2575809274        9.5513408352
  C         5.4557187101        1.5605970923        7.8099221897
  H         4.0714881201        0.3181105079        8.8275796742
  H         5.3911686228        0.7152863797        9.9490475666
  C         6.6023437944        2.6268192201        8.1769335384
  H         4.6261676326        1.9249071953        7.1622792011
  H         6.0076885859        0.7874392525        7.2684470532
  C         7.8103694675        2.0309149103        8.9561075698
  H         6.9838666826        2.8256308874        7.1715122134
  H         6.2218108337        3.6319231585        8.4890939834
  C         9.0632437516        2.8898359477        9.0402820475
  H         8.1719680732        1.0961685356        8.5894057303
  H         7.5848681505        1.8843194362       10.0167718194
  C         8.7070581023        4.2407387851        9.6854581793
  C         9.5142474129        3.5350084331        7.7909755710
  C        10.2183929068        2.1866983909        9.6999327683
  C         9.0484989868        5.3541221649        8.8936422852
  C         8.2499084690        4.6719730625       10.9482299552
  C         9.5457752268        4.9011305727        7.6964294261
  C        10.0177568369        2.8436937753        6.7166896187
  H         9.8965295362        1.8273961829       10.6708489742
  H        10.5098120250        1.2366963933        9.2022368251
  C        11.4560601995        3.0144770708        9.9455502382
  S         8.6624515367        6.9152398980        9.5120636031
  C         8.0978565834        6.0452948420       10.9530844550
  H         8.0570196812        3.9654265308       11.7087884829
  C         9.9987230169        5.4840740460        6.5455629750
  H         9.8044170151        1.7543378259        6.7428312997
  C        10.4620491356        3.4248038356        5.6103126630
  H        11.2372648350        4.0482733540       10.2311093517
  H        12.0895659246        3.0164150942        9.0516368021
  C        12.2142283999        2.5161174208       11.1740905829
  C         7.7277956811        6.8623603519       12.1408488454
  C        10.4206328504        4.7706482397        5.4166249929
  H        10.0478502003        6.5905656775        6.6075722177
  C        10.8269501710        2.9634398622        4.3556707751
  H        13.1952123744        2.7111100360       10.9226447966
  H        12.1103413691        1.4401788429       11.3097129242
  C        11.7524946505        3.1807736062       12.4654199589
  C         7.7443466268        8.2723626269       12.3398779641
  C         7.2956222218        6.0193583983       13.3152694233
  C        10.7795237272        5.3929268506        4.1299275231
  C        10.9383425172        4.0172445719        3.4541814585
  S        11.0429976851        1.4013009579        3.6513713152
  H        12.5011613909        3.9036337646       12.7626038536
  H        10.8061446609        3.7291761960       12.4230994932
  C        11.7259699103        2.1047789140       13.5970911190
  N         8.0765469013        9.2841908111       11.3570708653
  C         7.5206987077        8.8446168818       13.5838279863
  C         7.1059002062        6.6520560204       14.5661993109
  H         7.1047147636        4.9706525055       13.2940519548
  C        12.0842825259        6.2336922034        4.2993295821
  C         9.6599825425        6.1786004669        3.5464930211
  C        11.2242320577        3.6140593169        2.1398312585
  C        11.4085516107        2.2024753449        2.1358124646
  H        12.6369018131        1.5330921658       13.4346520315
  H        10.8599628736        1.4270879919       13.4737439920
  C        11.6793718398        2.7495406528       14.8993524889
  S         8.1024988349       10.7132135154       12.1146843317
  N         7.7513822332       10.2234708934       13.6161609759
  C         7.1587126448        8.1369678793       14.7897489731
  H         6.8555623805        5.9590818155       15.3491395886
  H        11.9561089094        7.0936285243        4.8636173911
  H        12.3158314495        6.4901789124        3.2605784831
  C        13.2688594638        5.4624401754        4.9402540158
  H         9.1888441249        6.8322081703        4.3134858147
  H        10.0170843907        6.8660911930        2.7745182160
  C         8.5631652466        5.2967509654        2.9374703887
  H        11.2951879185        4.2696522932        1.2812088403
  C        11.7646450869        1.4105963456        0.9486445496
  H        12.0474713137        3.7971263117       14.6896616762
  H        10.6616636604        2.8101584231       15.2815848518
  C        12.6384455697        2.1556913913       15.8940147897
  C         7.0370215945        8.7835461847       16.0576027896
  H        12.9332542996        5.0570956027        5.8970997694
  H        13.6238931346        4.6447513208        4.3180056014
  C        14.5394061499        6.2789217368        5.1939988917
  H         8.2642424941        4.5404771126        3.6431263156
  H         8.7876913274        4.8067667624        1.9715200534
  C         7.3567298816        6.2646179635        2.7792110644
  C        11.9290929212        0.0061974960        0.8214084201
  C        12.0394955745        2.1512870094       -0.3289030791
  H        13.6122988932        2.4371442903       15.4278223140
  H        12.6324800608        1.0631789588       15.8002178937
  C        12.6333271612        2.6101487340       17.3391911951
  H         7.1659999799        9.8790934991       15.9714372500
  C         6.8159050057        8.2817365046       17.3121606361
  H        14.4470776364        7.2520115295        5.6550844461
  H        15.0161823762        6.3578750075        4.2147466088
  C        15.5515846722        5.4751411768        6.0450934818
  H         7.1754754898        6.8738124351        3.7836190735
  H         7.6663161898        7.0615441096        2.0685426730
  C         6.2139761474        5.5504377938        2.1828525700
  N        11.6226006176       -0.9300451304        1.8257748422
  C        12.3781614808       -0.6712817227       -0.3435689921
  C        12.5796852794        1.4544188768       -1.4320731226
  H        11.7352651276        3.1866816655       -0.4299676077
  H        11.7281782149        2.3298422347       17.7099275499
  H        12.7534185446        3.7008603669       17.2835251795
  H        13.3517116968        2.0315661572       17.8684964416
  S         6.4485240720        6.6884147509       17.7336097935
  C         6.7052029680        9.3232698113       18.3946918964
  H        14.9825125897        4.9975830404        6.8920926975
  H        15.7387653499        4.6412569224        5.4034060068
  C        16.7803798480        6.2820220514        6.4248993589
  H         6.0339845426        4.6232360557        2.6718838732
  H         6.4986786164        5.2947204485        1.1395066922
  C         4.8561871592        6.2450886475        2.1783712721
  S        11.9585181186       -2.4168144420        1.2599783210
  N        12.4308969633       -2.0672530396       -0.2341395201
  C        12.6719063417        0.0041778032       -1.5129934367
  H        12.7146212208        2.0210806563       -2.3199311415
  C         6.1852587007        7.3334858044       19.3983571678
  N         6.2814492442        8.6757902023       19.4973504723
  O         6.9140605211       10.5260115147       18.2792495644
  H        17.3318681177        6.5496674815        5.5593355386
  H        16.3828183499        7.1806673858        6.8660916505
  C        17.7067525629        5.4581716540        7.3329416188
  H         4.1203075594        5.4420323047        1.8926980362
  H         4.7008742110        6.4862011232        3.1904625198
  C         4.6682163369        7.4014342864        1.1874929484
  C        12.9482900306       -0.6679336840       -2.7115060991
  S         5.7143505627        6.3435797429       20.8280254759
  C         6.1637074448        9.4180980363       20.7329309109
  H        17.2084614474        5.3643082068        8.2912635753
  H        17.8150712493        4.4574242925        6.9307414843
  C        19.1430152680        6.0306407221        7.6288682080
  H         4.2063893247        7.0280783863        0.3381124090
  H         5.6517875264        7.7313464135        0.8795513663
  C         3.8495091664        8.5720352226        1.7734409955
  H        12.6156322591       -1.6983601397       -2.6258622507
  C        13.2522579786       -0.3331123230       -4.0027550591
  H         5.4238182257        9.0958167660       21.4836798839
  H         5.9211031349       10.4974455385       20.6261893726
  C         7.4598890578        9.2741836471       21.4678599665
  H        19.4397946817        5.2436805234        8.2891383878
  H        19.0866772064        6.9906192451        8.1199290957
  C        20.0113381751        6.0992581900        6.3742504320
  H         3.1492421854        8.8907090475        0.9797721843
  H         3.1589977989        8.1731632647        2.5266367869
  C         4.8389011658        9.6473709444        2.3510234965
  S        13.8910674519        1.2071514895       -4.5411741865
  C        13.2474021564       -1.4510318498       -4.9623540902
  H         7.3336010595        9.4644199814       22.5395733204
  H         8.2018587915        9.9526014598       21.0568694983
  H         7.7633135483        8.2390031799       21.4348513123
  H        19.5071447777        6.7880932122        5.7111115468
  H        21.0398924631        6.4212043603        6.5747130066
  H        20.1227386421        5.1726973351        5.8595799493
  H         4.3550794152       10.4174507642        2.8064019542
  H         5.5231047657        9.1036665055        2.9780875133
  H         5.4169062904       10.0893377612        1.5032210187
  C        14.1014597125        0.3388761060       -6.1212868986
  N        13.8822297428       -1.0051565755       -6.0728661808
  O        12.9195446409       -2.6509334373       -4.6869027296
  S        14.8061134630        1.0208418906       -7.6451132166
  C        14.0309163587       -1.7877023493       -7.2729640840
  H        14.0307159779       -2.8369420604       -7.0390707041
  H        14.9603431354       -1.6166082872       -7.8816533540
  C        12.7938347362       -1.5497616493       -8.1479082238
  H        11.8575848518       -1.7770072142       -7.6032666402
  H        12.9019747216       -2.2270227789       -9.0002799505
  H        12.7410103099       -0.5239509868       -8.6089562432
