352
 i =   102400, time =    51200.000, E =        99.8580273893
  H        10.8161342357        4.1971330224       32.0850049178
  C        11.0774295763        5.2301903149       32.3815885309
  H        10.1917558824        5.8592973935       32.4175278164
  C        12.1330160032        5.6344323912       31.3443779099
  C        11.7143104176        5.0374544378       33.8078902000
  C        11.4858286150        6.2100631266       30.0249869477
  H        12.6934253482        6.5045970982       31.6849561169
  H        12.8605813137        4.8842151803       31.1952414387
  H        11.9867700886        5.9567394687       34.3081522306
  H        11.1893860544        4.3514371387       34.5398424795
  H        12.6278057142        4.4869919002       33.6603426668
  C        10.5139835930        5.2257705790       29.3001909079
  H        12.4494717472        6.3266848972       29.4540330959
  H        10.9974439485        7.1009608851       30.1723581966
  C        11.0087225861        5.1463606204       27.8972980936
  H        10.7728390322        4.1687676941       29.6937989636
  H         9.4397745680        5.5084345009       29.4236972672
  C         9.9002222562        4.6990761504       26.8762761141
  H        11.8872647256        4.4534989897       27.9471688434
  H        11.3133867168        6.1108973981       27.5686843608
  C         8.9150487362        5.7846113540       26.5257138635
  H        10.4893037068        4.3460667746       26.0791947034
  H         9.3968017792        3.8260083062       27.3144106397
  C         7.6194679624        5.2171946824       25.7615443816
  H         8.6043460684        6.3233634791       27.4030707123
  H         9.3261547859        6.4852795431       25.7922273975
  C         7.1756383926        3.8891831908       26.3818868026
  C         8.0804467346        4.5882944080       24.4320685557
  C         6.5122445739        6.2165593140       25.5914594097
  C         7.4823303672        2.8029326335       25.5838390431
  C         6.5755383073        3.4658608589       27.5653287412
  C         7.9565194957        3.2327844707       24.3974295072
  C         8.4623080591        5.1884288907       23.2249869528
  H         6.8643222904        7.0811259803       24.9859339076
  H         6.2579674494        6.4599878295       26.6212959355
  C         5.3160358691        5.5688271377       24.8812959563
  S         7.1457427632        1.2958165662       26.2147820506
  C         6.5177300617        2.0980565350       27.6173150796
  H         6.3240566745        4.2121072739       28.3367935576
  C         8.1934176716        2.5129064985       23.2485111877
  H         8.5037655616        6.2589994444       23.1705114146
  C         8.6646285899        4.5020631449       22.0648723370
  H         5.6990280137        5.2725389271       23.9431976150
  H         5.0535413165        4.6040222956       25.3466513706
  C         4.1201500324        6.4880206719       24.7984428790
  C         5.9983305260        1.4269331735       28.8151255542
  C         8.5226722602        3.1580737810       21.9750834198
  H         7.9379009678        1.4392583115       23.1948048288
  C         9.1158919846        4.8383325960       20.8398330582
  H         3.3827641784        6.0948820007       24.1117990220
  H         4.4404359023        7.3758866711       24.2921182068
  C         3.2494839240        6.6629322216       25.9626865837
  C         6.0712754286        0.0717093540       29.0565072683
  C         5.5577531372        2.2211990299       30.0269565240
  C         8.9372885154        2.4110714434       20.7840394833
  C         9.2892246555        3.7489841308       20.0254729441
  S         9.3665931256        6.3309078041       20.0151177259
  H         2.4011746951        7.2283962258       25.5890369940
  H         3.7022619659        7.1830115039       26.7938837427
  C         2.5506282123        5.3579514868       26.4726099478
  N         6.3748402880       -0.8712320695       28.0479210927
  C         5.8298438451       -0.5078115858       30.2783345100
  C         5.2015954335        1.6654389468       31.2330528902
  H         5.3793700122        3.2832195311       30.0536544008
  C         7.7214974397        1.6947681647       20.1359420392
  C        10.2587466130        1.5795648571       20.8994866037
  C         9.7148299194        4.2004387663       18.7140064555
  C         9.8683230509        5.5816191282       18.6316957537
  H         1.7146663183        4.9625076939       25.8681415046
  H         3.2907167543        4.5672524650       26.5067342411
  C         1.8959594460        5.4604103603       27.8088167437
  S         6.3638118723       -2.3458413006       28.7849283376
  N         5.9517836999       -1.8713265167       30.2614005922
  C         5.4108160946        0.2051831891       31.3827184444
  H         4.7631837401        2.2530927901       31.9156190725
  H         7.2210579865        1.0311791000       20.8348124143
  H         8.0819559051        1.0842752692       19.2866370176
  C         6.4766715431        2.4633842362       19.5313119924
  H        10.5714189813        1.0607840432       19.9618383868
  H         9.9591087673        0.7886484679       21.6309907734
  C        11.4570292527        2.3874379032       21.3853809082
  H         9.8527887816        3.4254315994       17.9365402757
  C        10.3161588378        6.2512880094       17.3654680478
  H         1.3786685978        4.5277290409       28.1574516782
  H         1.1443228353        6.2554267106       27.8036816876
  C         3.0543052313        5.7664628663       28.8182363753
  C         5.1723270707       -0.4609981610       32.6119726781
  H         6.7688827373        2.7393286248       18.5200993539
  H         6.1518933248        3.3473380744       20.0914580753
  C         5.3156810148        1.4415435547       19.2327914219
  H        11.1616354703        2.9476946742       22.2577582759
  H        11.7710206210        3.0235609095       20.5528989766
  C        12.6833230708        1.5971237452       21.8466500010
  C        10.2695118426        7.6311513918       17.1060719136
  C        10.5892426561        5.3891509689       16.2056622138
  H         3.9800533050        5.3019524268       28.5929535892
  H         3.2585397966        6.8595996217       28.7793427414
  C         2.7869180058        5.4883630271       30.2777593890
  H         5.1665960504       -1.5304376427       32.4919605973
  C         4.9105887257        0.0931910119       33.8511086524
  H         5.1247246642        0.7630865241       20.1776106831
  H         5.5795595763        0.7892461811       18.4139093178
  C         4.0234313078        2.0826215053       18.7765310768
  H        12.4262397617        1.0465031972       22.7565148999
  H        12.9537413141        0.7989762630       21.1599153211
  C        13.8186219290        2.5604929716       22.2101783968
  N        10.0201881408        8.5942676830       18.0646311716
  C        10.6589922342        8.1714509729       15.8426404619
  C        10.8432576169        5.9455992378       14.9680275851
  H        10.7674256603        4.3336954886       16.3096975770
  H         3.4538174610        6.0755954988       30.8899237242
  H         1.7564082337        5.7230517489       30.6230101583
  H         2.8672622865        4.4432285209       30.3693242714
  S         4.8109103813        1.8117697067       34.3723342185
  C         4.7416197570       -0.8525872862       34.9444103607
  H         3.5894792736        2.4927098240       19.6553995835
  H         4.2325789358        3.0087846293       18.2737461642
  C         3.0611891268        1.0702856948       18.0594476492
  H        13.4817356643        3.2503013108       22.9247303995
  H        14.1481027602        2.9263357572       21.1857900860
  C        14.9761925720        1.7262666009       22.6924090508
  S        10.1462865096       10.0588479557       17.3348359858
  N        10.5535861568        9.5428077078       15.8273913385
  C        10.9413288673        7.4190490883       14.7368429545
  H        11.0122129644        5.2340543984       14.1473886128
  C         4.6023089876        1.1534817239       35.9727850635
  N         4.4139900960       -0.2075516560       36.0372624129
  O         4.6992420374       -2.1105130868       34.8448738497
  H         3.6329659542        0.8274250779       17.1924305005
  H         2.1583434106        1.6343630318       17.8155389613
  C         2.7554785192       -0.2422954955       18.7907041855
  H        14.7796789623        1.4663828713       23.6957700547
  H        15.0475749813        0.7817451234       22.0850939688
  C        16.2773749151        2.5501162433       22.5452906506
  C        11.3334282255        8.1478883720       13.5409124729
  S         3.9798456453        2.0825011949       37.2934544743
  C         4.2345457909       -0.9706649151       37.2947610393
  H         3.7374526085       -0.7948829090       18.9079685291
  H         2.6279597495        0.0740979458       19.8420335228
  C         1.7643573411       -1.2385036682       18.2191448535
  H        16.1288879874        3.4803176706       23.0789734414
  H        16.3360831427        2.9204974101       21.5336172435
  C        17.4793274121        1.8814331980       23.0794455923
  H        11.1949360509        9.2312193625       13.4969387859
  C        11.8857930865        7.7394424238       12.3724553926
  H         3.5591280901       -0.5154168933       38.0405341621
  H         3.7148500401       -1.9326896846       37.1509563113
  C         5.6299328102       -1.3643909966       37.8574561024
  H         0.8731987675       -0.6505113913       18.1713239301
  H         1.5824115812       -2.1291567687       18.7871563405
  C         2.0357474881       -1.5913129141       16.7584634354
  H        17.7055112405        0.9199226369       22.6351017761
  H        18.3518841249        2.4890522115       22.8273427566
  C        17.4261956475        1.7618547987       24.5839186074
  S        12.3759022622        6.1306314036       12.0397006460
  C        11.9660410114        8.6016400945       11.1924930645
  H         5.6835835037       -1.7706897512       38.8526891959
  H         6.1612968774       -2.0267962265       37.2195122643
  H         6.3306533187       -0.5854887133       37.9543191271
  H         2.8825569822       -2.2440278781       16.6622382188
  H         2.1482300108       -0.8082989530       16.0409506175
  H         1.2613373576       -2.1608120694       16.3042919360
  H        16.4866864987        2.1977250323       24.7577617649
  H        18.3465605252        2.2443849356       25.0652922735
  H        17.5625127726        0.7352500583       24.8939720906
  C        12.7646769422        6.6359687371       10.4562791974
  N        12.5501678180        7.9590777622       10.1969316476
  O        11.6421106171        9.7936418198       11.1829539773
  S        13.5182914171        5.6860457988        9.1999600646
  C        12.7102201832        8.5905271385        8.9406671701
  H        13.1521897382        9.5258285768        9.2245943291
  H        13.4604609977        8.0925115071        8.3069592167
  C        11.3674386508        8.9267268637        8.1953489137
  H        11.3413952167        9.9407423819        7.8411664589
  H        11.2745040003        8.2426739654        7.3537084368
  H        10.4272836773        8.8272241335        8.7624074341
  H         2.8416541558        2.9353186962       12.4845304943
  C         3.5270171792        2.1387249927       12.9452776755
  H         2.9571326049        1.2174644573       12.6836942291
  C         4.9115875639        2.1528959033       12.3772413770
  C         3.5892549802        2.1925002717       14.4619018849
  C         4.8148251960        2.3944131827       10.9256990094
  H         5.3419275855        1.1846886735       12.6226970360
  H         5.4969792499        2.9959332357       12.8438119930
  H         3.9528954364        3.1125023165       14.8442104315
  H         4.4188857839        1.5989243256       14.7984555638
  H         2.6871392785        1.9564585842       14.9831780946
  C         5.1583461925        1.2135486266       10.0213845465
  H         3.8863462838        2.8787603590       10.6469553377
  H         5.5216676236        3.1569646113       10.7121407894
  C         5.6657207857        1.5650109539        8.6134910529
  H         4.3255689903        0.4534010527       10.0282169163
  H         5.9917446347        0.7195929516       10.5557936002
  C         7.0586973526        2.3223849899        8.6103694597
  H         4.8585315657        2.1396080738        8.0443356421
  H         5.7543036858        0.6008562688        8.0916377527
  C         8.2668528487        1.5132326642        9.2296859101
  H         7.1368911726        2.6042424284        7.6025945193
  H         6.9197780398        3.1383061814        9.2380194475
  C         9.5976328483        2.3092714395        9.2137049160
  H         8.3896280036        0.6161830847        8.6524794873
  H         8.0708076694        1.2390432213       10.2673523701
  C         9.3123746783        3.6413415206        9.9668453231
  C         9.9766869045        2.9955968395        7.9091324882
  C        10.8012206043        1.5988695265       10.0151482328
  C         9.5681124562        4.7117743069        9.1278304208
  C         8.9996023183        4.0832184295       11.2509757061
  C         9.9822948232        4.3298276802        7.8730152129
  C        10.3767281296        2.3780160451        6.7618908689
  H        10.3638138577        1.2972787022       10.9632619831
  H        11.0006298811        0.6819307221        9.4703592903
  C        12.0474102512        2.4851848911       10.1980656826
  S         9.1578897450        6.2000099353        9.9106087550
  C         8.7887418573        5.4301028208       11.3868300587
  H         8.8889903783        3.3320053305       12.0002349264
  C        10.2551537727        4.9974038928        6.7121875649
  H        10.4625945238        1.3428285309        6.8990806146
  C        10.7383623339        3.0043987083        5.6251666467
  H        11.8487653977        3.5385611614       10.3876474278
  H        12.5441550914        2.4497937239        9.3039153251
  C        12.9172775836        1.9707691354       11.3986280866
  C         8.2870190550        6.1561058678       12.6053205408
  C        10.6259534521        4.3857387398        5.4915089917
  H        10.0900593678        6.0036099491        6.7006864417
  C        11.1539543253        2.5855178352        4.3912198937
  H        13.8812336645        2.4729989204       11.2709492174
  H        12.9835654566        0.8966636495       11.2807822241
  C        12.3799873574        2.4977453220       12.6823949182
  C         8.2406361450        7.5693852474       12.7752229476
  C         7.7686320517        5.2794942380       13.7039769285
  C        11.1285265168        5.0600490714        4.2350007435
  C        11.3664280664        3.6790926109        3.5686894798
  S        11.4515602763        1.0757811835        3.6505612237
  H        12.4293800017        3.5483472394       12.6479392877
  H        11.3553245207        2.2917982062       12.8610565185
  C        13.1276397409        1.8167941667       13.8345327829
  N         8.7638054076        8.4325106950       11.8404724989
  C         7.8072258197        8.1451518478       13.8958623171
  C         7.3335539913        5.9055120993       14.8754993568
  H         7.7412928047        4.1848663615       13.6238681487
  C        12.4413590500        5.7946179140        4.4982806191
  C        10.1216036010        6.0484381733        3.4685548989
  C        11.6437454794        3.2701547645        2.2875377820
  C        11.7873393872        1.9278437203        2.1631576648
  H        14.0475202861        2.2896982263       13.7317210484
  H        13.3078968188        0.7017504142       13.6876700397
  C        12.3802548115        2.1803645497       15.1045694990
  S         8.5928072689        9.9237489441       12.4283963003
  N         7.9689607455        9.5640414735       13.8363827396
  C         7.4600399196        7.4249299461       15.0707950909
  H         6.7732968056        5.2800413783       15.5594794326
  H        12.3150159549        6.6619365593        5.1947847361
  H        12.8885073788        6.1688158621        3.6404337637
  C        13.5432463499        4.8554319738        5.0830727467
  H         9.6528938645        6.6617799107        4.2130302262
  H        10.6910286989        6.6336614385        2.7357827269
  C         8.9157147205        5.3498001683        2.8944631551
  H        11.7324663356        3.9426721291        1.4657284298
  C        12.0519941487        1.1951130315        0.8661647561
  H        12.1301481122        3.1712360567       14.9061341234
  H        11.4955686353        1.5806952575       15.0457161549
  C        13.2668349012        1.9504367192       16.3626296801
  C         7.2645232721        8.1077147942       16.3243751330
  H        13.1933352857        4.2522426290        5.8833838284
  H        13.8985386845        4.2190739623        4.2610801885
  C        14.7407349554        5.6973122408        5.5581616935
  H         8.4241661179        4.6915060082        3.6168835524
  H         9.3464527763        4.7701955331        2.0846568102
  C         7.7454665796        6.2322938757        2.4319923059
  C        12.0690130002       -0.2595443802        0.7304575766
  C        12.2629114399        2.0402490656       -0.3435940181
  H        14.1726258718        2.3969849868       16.0470398267
  H        13.3701090698        0.8774147932       16.6278784308
  C        12.7741927512        2.5132120370       17.7242601699
  H         7.5703528193        9.0764175560       16.3773940814
  C         6.8953391334        7.6965953039       17.5746527916
  H        14.4787566092        6.4396532539        6.3210381449
  H        15.0187988072        6.4118601417        4.7612487183
  C        15.7066806388        4.7854289488        6.0541985449
  H         7.3945502728        6.8336012884        3.3002394875
  H         8.0480405237        6.8179854681        1.5549625009
  C         6.5633612322        5.3669202078        1.9949391752
  N        11.8435837363       -1.2047043520        1.6905070390
  C        12.3182948148       -0.8341953031       -0.5212377753
  C        12.5103950356        1.4492158096       -1.5521740570
  H        12.3108030410        3.1578458443       -0.2570607102
  H        13.4772217057        2.5850825220       18.5233653483
  H        11.9586991223        1.8330198024       18.0034674262
  H        12.3550886916        3.4978441306       17.5819723053
  S         6.4636308197        6.1295063574       18.1767002696
  C         6.9614211698        8.7837655576       18.6299919254
  H        15.2841345180        4.0767551221        6.7897176000
  H        16.0169261365        4.0550014646        5.2575412400
  C        16.8352824917        5.5657804401        6.5639838730
  H         6.4867875770        4.4117364539        2.5876288272
  H         6.6996543843        5.0711295369        0.9786155420
  C         5.2331641767        6.1802067430        2.2447837717
  S        11.7428724119       -2.7079004610        0.9548131158
  N        12.1790139392       -2.2538552608       -0.5677604965
  C        12.7582612963       -0.0323816848       -1.6275981314
  H        12.6315581062        2.0966418213       -2.4317323408
  C         6.2299554160        6.8777971945       19.7927367058
  N         6.4874136264        8.2176052352       19.8263623036
  O         7.1587457521        9.9882792154       18.4253517046
  H        17.1201470518        6.2590181314        5.7839159491
  H        16.4047605637        6.1165563984        7.3725112824
  C        18.0622044525        4.7067333208        7.2295931764
  H         4.3908280846        5.5848681735        2.0233689675
  H         5.2105639047        6.4416403266        3.2610967576
  C         4.9809625406        7.4059980538        1.3014300273
  C        13.0587454808       -0.7025539928       -2.8306872672
  S         5.7610068526        6.0550938992       21.3373821059
  C         6.3936174277        9.0274186626       21.0733729342
  H        17.8089346657        4.3087501837        8.2040211780
  H        18.5205541805        3.8838108558        6.6216569630
  C        19.1264402261        5.7151120503        7.6239026610
  H         4.9413234451        7.1614160102        0.2196129245
  H         5.8657318029        8.0785995863        1.3018450272
  C         3.6414684979        8.0977639642        1.6850302472
  H        12.7678657290       -1.7597182181       -2.8636547665
  C        13.5475808858       -0.3016876130       -4.0483925604
  H         5.6984784283        8.6525260831       21.7552797276
  H         5.9280507520        9.9596241611       20.7668105136
  C         7.8545408151        9.1977913743       21.5775003514
  H        19.5753057434        5.4868312689        8.6203029682
  H        18.6697957587        6.6420096207        7.7681499529
  C        20.2489061641        5.8767494892        6.5800618927
  H         3.1840849422        8.4143470311        0.6999516305
  H         2.9648005476        7.4812628517        2.3037186144
  C         3.9437122887        9.3140512584        2.4811048119
  S        14.2352190943        1.2054675759       -4.4509828353
  C        13.5030603215       -1.2865982486       -5.1733517163
  H         7.9317653343        9.7814007958       22.4942840537
  H         8.2947022251        9.7687493803       20.7951951325
  H         8.3646183279        8.1783862835       21.6298849217
  H        20.5367126770        4.9077861288        6.1971335787
  H        20.0096759938        6.5154228170        5.7460778608
  H        21.1902162233        6.3534370872        7.0038259050
  H         4.8213822747        9.8586238181        2.1691202485
  H         2.9983053368        9.8804637160        2.7673823259
  H         4.1050455030        8.9997311920        3.5369143516
  C        14.5342417992        0.5496111775       -6.0981051665
  N        14.1197117245       -0.7716636251       -6.2533436048
  O        12.9712035450       -2.4013421056       -5.1130103426
  S        15.2465804325        1.4759218778       -7.5015744601
  C        14.2833088762       -1.5456748472       -7.5583366686
  H        14.5445417047       -2.5527086324       -7.0636119227
  H        15.1240040362       -1.2040052605       -8.1673440670
  C        12.9648054631       -1.5997992363       -8.3646560966
  H        12.9739901292       -2.5780481357       -8.8069435874
  H        13.1185183393       -1.0958835147       -9.2770636467
  H        12.0237621378       -1.3919085894       -7.8913071475
