352
 i =    37000, time =    18500.000, E =        97.6373305708
  H        10.5606807512        4.5272093227       31.1946068171
  C        10.5251565581        5.4212784183       31.8181859623
  H         9.5368757412        5.8485522222       31.7134291017
  C        11.4407985281        6.3684990668       31.0648127696
  C        10.8152287662        5.4090419354       33.3229149746
  C        11.8024955511        5.9135095960       29.5683090202
  H        11.0219948525        7.2766112389       31.1410194250
  H        12.3839590114        6.4577048855       31.5971266782
  H         9.9140274830        5.3077655768       33.8901129177
  H        11.3000564755        4.4759350525       33.5731653567
  H        11.5165759030        6.2892292719       33.5635950897
  C        10.5493793292        5.7025749585       28.7501036201
  H        12.4348184508        5.0281225532       29.6340914746
  H        12.5412219828        6.6382157601       29.0834840578
  C        11.0703206560        5.6361492158       27.2866355756
  H        10.1570467108        4.6935538287       29.0439116893
  H         9.7403018957        6.4461077256       28.8725765387
  C        10.0008074674        4.9046216544       26.4159060680
  H        12.0167246501        5.0580499272       27.3921777978
  H        11.1184663682        6.5770404824       26.7423425572
  C         8.5759148597        5.5631384195       26.3608483763
  H        10.4254397918        4.7809907803       25.4848480470
  H         9.9199455887        3.8513907784       26.8307046009
  C         7.5415781019        4.6713945558       25.7351091543
  H         8.3702959816        5.8570370131       27.3867031199
  H         8.6419649301        6.5465550618       25.8560562811
  C         7.2278718647        3.3732183128       26.4624982855
  C         8.0824167873        4.0028225649       24.5369796759
  C         6.2994692498        5.5832381343       25.5482271869
  C         7.4547707124        2.2810002227       25.5903048182
  C         6.7926252562        3.0502080370       27.7096733324
  C         8.0127629614        2.6593647237       24.4067151501
  C         8.5521050671        4.6392328497       23.3649233181
  H         6.4725751131        6.5032614130       24.8670891790
  H         6.0060306757        5.9313700000       26.5349532717
  C         5.1127135536        4.8675511324       25.0048388599
  S         7.0090708425        0.7500390135       26.3451201976
  C         6.4789386453        1.6979487764       27.7960847152
  H         6.6549334903        3.8706341017       28.4304113808
  C         8.3697157263        2.0197055980       23.2837440184
  H         8.5338868431        5.7109447615       23.3556329446
  C         8.8615602969        3.9750254759       22.1873618204
  H         5.4575136283        4.4236454861       24.0539280156
  H         4.8301784644        4.0502354561       25.5978076278
  C         3.8869340211        5.7635150464       24.6758647496
  C         5.9602601076        1.0310093808       29.0611504515
  C         8.7318430241        2.6473373073       22.0922890982
  H         8.3548402771        0.9521609009       23.2494155431
  C         9.2827772279        4.4612200048       20.9822347749
  H         3.2323769141        5.2076725621       23.9714554426
  H         4.0594430684        6.7364510673       24.0747792480
  C         3.0579756706        6.1022322742       25.9089156962
  C         6.0541394746       -0.3695467767       29.2713360476
  C         5.4821417044        1.8683939724       30.1384490220
  C         9.1761139024        2.0599660652       20.7877056061
  C         9.4264942488        3.4292909265       20.1019855501
  S         9.5489588373        5.9634581107       20.2460088104
  H         2.2855807947        6.8026497641       25.6134489720
  H         3.6220174619        6.6530632336       26.6643953714
  C         2.4559953482        4.8504439799       26.6389980963
  N         6.6496059213       -1.2503267603       28.3516194485
  C         5.6846190635       -0.9274293137       30.4410611392
  C         5.1463588739        1.3071837933       31.3289953861
  H         5.5948114581        2.9575000718       30.0916842272
  C         8.0815281089        1.2950559220       20.0029606651
  C        10.4709801495        1.2698403277       20.8950417756
  C         9.8234161467        3.8109398037       18.8405436470
  C         9.8824153708        5.2141021878       18.7240850277
  H         1.6372994383        4.4378181574       26.0722931708
  H         3.2600023723        4.0827287671       26.8999509951
  C         1.8611759258        5.2292530499       28.0029273855
  S         6.5476508167       -2.7366768633       29.0286060685
  N         5.8300615528       -2.3291018626       30.4234803585
  C         5.3011053642       -0.1741574664       31.6047971267
  H         4.9179544501        1.9867492994       32.1165480914
  H         7.6230224627        0.5705581837       20.6733898237
  H         8.5148424822        0.7185290627       19.1492729887
  C         6.9367372103        2.0314481808       19.4981080017
  H        10.6203697284        0.7042005236       19.9714818601
  H        10.2190680010        0.7037910583       21.7372684218
  C        11.7110327931        2.1904889375       21.2865411985
  H        10.0009416561        3.0793587803       18.0759576333
  C        10.0816096903        5.8738790130       17.3600064396
  H         0.8782183735        4.7257078756       28.0320973672
  H         1.5436558516        6.2592750954       28.0419957036
  C         2.8400019580        4.8534799682       29.1720427745
  C         5.1465653109       -0.8208981712       32.8758397530
  H         7.1712086345        2.6890106210       18.6697886066
  H         6.5985514713        2.6352638220       20.3515234077
  C         5.8131043168        1.0109402913       19.0746966507
  H        11.3088064200        2.8079714027       22.0958576151
  H        12.0984121224        2.9169054770       20.6053399544
  C        12.8827940614        1.4526617235       21.8794464058
  C        10.1731202917        7.2669624393       17.1779775338
  C        10.3039985487        5.0698178809       16.1399604414
  H         2.9245083209        3.8554893979       29.3377493011
  H         3.8061683834        5.2754548597       28.8735758911
  C         2.4074785497        5.6023000153       30.4670195677
  H         5.3869441609       -1.8317958359       32.8526266516
  C         4.9714185381       -0.2349568556       34.1817637303
  H         5.7929658001        0.3429145754       19.9739050623
  H         6.1419427762        0.3526322879       18.2585069838
  C         4.5185102289        1.7404893770       18.7537326563
  H        12.4931312299        0.7769588166       22.6585519107
  H        13.2807675976        0.8213297019       21.0407789538
  C        13.9446426078        2.4037938203       22.3521499665
  N         9.8783978865        8.1326712110       18.1913403177
  C        10.5148001135        7.8867028901       16.0047148694
  C        10.6272281992        5.6699766890       14.9405015169
  H        10.1493490674        4.0278505703       16.1928876417
  H         2.1063163361        6.5979108973       30.1580812811
  H         1.5965806539        5.2849398887       31.0555248750
  H         3.3012272584        5.7484850759       30.9956365030
  S         4.6538697353        1.3984754130       34.6020186083
  C         4.7678514740       -1.1889499793       35.3458455035
  H         4.3847239472        2.5459420610       19.4399374991
  H         4.6216150845        2.1330358641       17.7053790085
  C         3.2587976577        0.7817603215       18.8453542381
  H        13.5448692928        3.2520972524       22.8984241880
  H        14.5098043752        2.7149926326       21.4765255168
  C        15.0229100977        1.6652813115       22.9728550181
  S         9.8312931107        9.6855504060       17.5435927758
  N        10.4707752910        9.3021224071       16.1348726198
  C        10.7252156681        7.1616129730       14.8326928774
  H        10.7897648180        5.1132691420       14.0919946191
  C         4.3118575289        0.7562950675       36.2578289348
  N         4.3754921043       -0.5505648752       36.4281445717
  O         4.7652810647       -2.4104980396       35.1532939198
  H         2.4914891742        1.4921269117       18.6914908986
  H         3.1133540198        0.3221130829       19.8422365197
  C         3.2313633813       -0.1900252007       17.6261404838
  H        14.6570253281        1.1069123063       23.8333980464
  H        15.4163143625        0.8334289880       22.4029447825
  C        16.1898185648        2.6315850026       23.4082764745
  C        11.0343692472        7.9298064082       13.6080935344
  S         3.7716178642        1.7653949035       37.6383478238
  C         4.2473984497       -1.0983551586       37.7807914354
  H         2.3581222541        0.1293182378       17.0485012665
  H         4.1150735501       -0.0477049496       16.9792644283
  C         3.1232624899       -1.6949617258       18.0314174118
  H        15.8051894507        3.2603574893       24.2379404242
  H        16.3090008594        3.2342177395       22.5489265311
  C        17.3813837234        1.8150227121       23.8567307556
  H        10.6611339189        8.9228376117       13.6017224005
  C        11.4818124973        7.5350504589       12.3605584284
  H         3.4255051947       -0.6286317241       38.2676849081
  H         3.9511689289       -2.0786538101       37.7480113569
  C         5.4665093330       -0.9616899411       38.6485622447
  H         2.0950651080       -1.9976546398       17.7581042477
  H         3.2064952801       -1.8001918831       19.1016286876
  C         4.1559507765       -2.5294297733       17.2320486439
  H        17.7156473401        2.2164313229       24.7407997665
  H        16.9574499009        0.8536534542       24.1434222952
  C        18.3656569190        1.5561215566       22.7919140089
  S        12.1047822151        6.0368943695       11.9307070561
  C        11.6367383684        8.5237115798       11.2936914733
  H         6.3882312705       -0.6670054171       38.2374424652
  H         5.2683835881       -0.2462125845       39.4507510131
  H         5.6147586313       -1.9172994681       39.1530839591
  H         5.0954875272       -2.1005676991       17.1820042014
  H         3.7074754488       -2.6648121258       16.2139455778
  H         4.1480105200       -3.5444694199       17.7058596282
  H        19.2857720275        1.0951026441       23.0689680860
  H        18.7486806017        2.5583576345       22.3136758800
  H        17.9960374945        0.9757288126       21.9985135096
  C        12.4613390924        6.6365314290       10.3569416360
  N        12.2926837887        7.9741717285       10.2413128997
  O        11.2164273758        9.6889584621       11.4106624166
  S        13.1665400041        5.6297890630        9.0528044984
  C        12.3648895686        8.7007422869        8.9684354553
  H        12.6672783928        9.7986191866        9.1131543220
  H        13.2131318348        8.2936707465        8.3857927709
  C        10.9640708475        8.7026764770        8.2826439983
  H        10.1923147087        9.1491099558        8.8228230477
  H        11.0621194102        9.3830563823        7.4365434112
  H        10.5380601455        7.7522837202        7.9239903803
  H         2.5257401999        1.1085334923       13.5492415052
  C         3.4695436890        1.4221459925       13.1496792120
  H         3.9682071225        0.5342230696       12.8837949641
  C         3.3010057976        2.3542938699       11.9082561064
  C         4.2910790212        1.9763888844       14.2694953237
  C         4.4733997027        2.4972423891       11.0377476723
  H         2.9884124681        3.3798794329       12.2436823914
  H         2.5035762790        2.0197054083       11.3206713900
  H         4.9368704960        1.2101332269       14.6676347720
  H         3.5519047871        2.2011192765       15.0033726118
  H         5.0024519943        2.8188793794       14.0037278615
  C         4.7205873006        1.1188920037       10.3249299594
  H         4.1509500524        3.2654802000       10.3661196269
  H         5.3688087174        2.7785179151       11.5921152969
  C         5.1364427015        1.1520883531        8.8052618922
  H         3.7494460414        0.5382380481       10.2637618359
  H         5.4743349058        0.5256493683       10.8526622716
  C         6.2927298346        2.0832547302        8.5847541845
  H         4.3157598059        1.5314444299        8.1632988578
  H         5.3312922562        0.1485054487        8.3912138472
  C         7.5709032189        1.4278417269        8.9673851152
  H         6.4620661928        2.2627961179        7.4779223117
  H         6.1771310831        3.0286954067        9.1828260755
  C         8.8555294581        2.3893464638        9.0176126678
  H         7.8236121123        0.5065321817        8.4847814036
  H         7.4191853968        0.9947406148        9.9972181621
  C         8.4876906096        3.7266935959        9.6944531701
  C         9.2214264587        3.1641249867        7.8042372451
  C        10.0064941376        1.6711512262        9.7088716158
  C         8.7955128669        4.8690697006        9.0330241884
  C         7.8407718893        4.0397036197       10.9079758914
  C         9.2175278546        4.4999548139        7.7827183560
  C         9.6633692316        2.6319541780        6.6181057807
  H         9.5739513208        1.0464799595       10.5212063534
  H        10.4162618681        0.9565217518        9.0084089836
  C        11.0595518014        2.6526035187       10.2693181989
  S         8.4927126259        6.3164007840        9.8653813560
  C         7.9389023553        5.3779230135       11.1800049263
  H         7.4984044613        3.1965676818       11.4764239824
  C         9.5435676175        5.1793600118        6.6740714191
  H         9.7089260211        1.5399278078        6.6239975656
  C        10.0548595925        3.2980297192        5.4637472888
  H        10.6022827310        3.3565787630       10.9414648615
  H        11.4620135133        3.1916240461        9.3976679037
  C        12.2023616015        1.9118267383       11.0576377193
  C         7.6006963443        6.0500098361       12.5368497121
  C        10.0073495356        4.6571039367        5.4573822183
  H         9.4535181275        6.2531116795        6.6665927386
  C        10.4961572207        2.9587159676        4.2498803318
  H        13.0835366123        2.5483281211       11.0390564360
  H        12.5412254804        1.0572865526       10.5641396612
  C        11.8564574331        1.5921897727       12.5308815286
  C         7.7211034216        7.4686249311       12.7814433200
  C         7.1453015836        5.1962071953       13.6626066248
  C        10.4463869613        5.4304553530        4.2399195182
  C        10.7397272789        4.0997714887        3.5310273534
  S        10.9577772450        1.4381872812        3.5727479236
  H        11.1232915745        2.2936543494       12.8169171446
  H        11.5146777588        0.5349428504       12.5898552598
  C        13.1418724290        1.6372125606       13.3565489433
  N         8.0964452053        8.4259052856       11.8553509992
  C         7.4163436859        8.0460951709       13.9731302996
  C         6.9009223204        5.8530704520       14.8664814878
  H         7.0361812749        4.1408524235       13.6171900629
  C        11.6227382557        6.3717396902        4.3451385336
  C         9.2100610479        6.1094161977        3.5539057793
  C        11.1906941309        3.6589815998        2.2487286901
  C        11.3271838636        2.2776401577        2.0585605285
  H        13.4367928957        2.6429624853       13.5530395142
  H        14.0277338238        1.1483902476       12.8615422848
  C        12.7757543031        0.8962239537       14.6372616509
  S         8.0215137015        9.9038528239       12.5530857609
  N         7.5732772134        9.4030002252       14.0192271947
  C         7.0457114403        7.3019306140       15.1058300443
  H         6.6960489492        5.2563969640       15.7048337353
  H        11.3901548292        7.2748567776        4.9396213571
  H        12.0229566437        6.6522393696        3.3552950092
  C        12.8110466686        5.5959350051        5.0082305318
  H         8.6739867734        6.6322374850        4.3088103238
  H         9.5568731090        6.8303444569        2.8157920484
  C         8.1218145071        5.2186083619        2.8950497109
  H        11.4527838134        4.3911178033        1.5419980240
  C        11.8025398315        1.5764718534        0.7788633569
  H        11.9238507222        0.2741658995       14.5344414405
  H        13.6221086374        0.2698882475       14.9339673712
  C        12.7010001110        1.8268222714       15.8438201323
  C         6.8032053869        7.9754535706       16.3908231054
  H        12.7412702978        5.5088281601        6.0774991413
  H        12.9636209198        4.6291420696        4.6066364489
  C        14.0923543683        6.4127847843        4.9013458211
  H         7.7976602224        4.4239144506        3.5911382314
  H         8.5965410203        4.6779583628        2.0846667091
  C         6.8988827253        6.0233250100        2.4760566817
  C        11.7913227873        0.1891253995        0.5612553210
  C        12.1672640501        2.4594754024       -0.3458773440
  H        11.8459300445        2.4635494693       15.7625594590
  H        13.6104089303        2.4309405178       15.6916723627
  C        12.6331159267        0.9902326560       17.1305915198
  H         7.0170278313        9.0018136220       16.4941643203
  C         6.5360748850        7.4969337494       17.6836148806
  H        13.8661380807        7.4745721520        5.1070373732
  H        14.4509374544        6.3747706002        3.8640408689
  C        14.9679041073        5.8572104488        5.9986329380
  H         6.5992117242        6.7557274667        3.2894960689
  H         6.9944372748        6.6580331017        1.6069066467
  C         5.6582648003        5.1155360162        2.3344458072
  N        11.4693625825       -0.8939325173        1.4451970121
  C        12.1024993843       -0.3634093324       -0.7021066206
  C        12.3869581214        1.9013144572       -1.5835254073
  H        12.1446438226        3.5680049642       -0.3134914080
  H        13.1095074848        1.4376444488       17.9581075373
  H        13.0722705937        0.0245834882       16.9356299394
  H        11.5935819709        0.8956008192       17.3522553018
  S         6.2567271600        5.8979891483       18.1378091696
  C         6.4987851940        8.5445575126       18.7356111668
  H        14.7830625174        6.2599285891        7.0126301457
  H        14.8960290680        4.7549127208        5.9660392091
  C        16.4157136907        6.2032285247        5.6763990119
  H         5.3810781163        4.7307443535        3.3151681094
  H         5.8582854394        4.2760987575        1.7064297233
  C         4.4757526602        5.7791177136        1.6982361339
  S        11.6912929012       -2.3162446978        0.7307954949
  N        12.1418032341       -1.7667067149       -0.6958403208
  C        12.4656475812        0.3940604882       -1.8409677308
  H        12.6516869067        2.4094152268       -2.4543822854
  C         6.2334497060        6.5255793959       19.7525370486
  N         6.3425430640        7.8830532079       19.9252137678
  O         6.5181313501        9.7542831872       18.5648514082
  H        16.7685064330        5.7099007639        4.8204553224
  H        16.4048975666        7.2855419888        5.4682845840
  C        17.2570738366        5.8860824427        6.9277215274
  H         4.8368887857        6.0271372403        0.6665379864
  H         3.6673988591        5.0481913756        1.5811503155
  C         3.8258229647        7.0104681140        2.2930231942
  C        12.7046343660       -0.3689015016       -3.0881603162
  S         6.1204070151        5.5619184004       21.2071152377
  C         6.2162018351        8.5486114353       21.2012370157
  H        17.3291499295        6.6958609132        7.5899658872
  H        16.7689435058        5.1220373894        7.4762003862
  C        18.5772329143        5.4455772384        6.5324319772
  H         3.8702428231        7.1452835820        3.3222638492
  H         2.7483620315        6.9575542223        2.0786527762
  C         4.3726600744        8.3109855651        1.6324809650
  H        12.2824779461       -1.3213562956       -3.1451362210
  C        13.3437573528        0.0051473377       -4.2096423302
  H         5.4016679232        8.1397002944       21.8322701987
  H         5.9427965752        9.6056525778       20.9714155413
  C         7.5817072237        8.6538001220       21.9167277673
  H        18.7903065314        5.7387497514        5.4889025095
  H        18.5715106937        4.3512734219        6.4947696781
  C        19.7325050503        5.9316823390        7.4310589605
  H         4.3095013779        9.1236420573        2.3832048143
  H         5.3821965335        8.2185089315        1.2116860326
  C         3.6084127702        8.7624226208        0.3947343240
  S        14.1427245352        1.4530783203       -4.4493151103
  C        13.3543906444       -0.9460711806       -5.3720290242
  H         7.8974304175        7.7577860075       22.5017418077
  H         7.6133977496        9.5285200440       22.5448798054
  H         8.2946331387        8.8840550812       21.1104997893
  H        20.4695822101        5.1829632634        7.6030417979
  H        20.1745892350        6.8219063583        7.0262870010
  H        19.4822593824        6.3422773654        8.3523631232
  H         3.7192889064        8.2403016218       -0.5605071673
  H         2.5633562297        8.8439030509        0.5594712587
  H         3.9476112597        9.8283433984        0.3135254981
  C        14.6434869678        0.8442811143       -6.0478036753
  N        14.2169710899       -0.4228872652       -6.2745942049
  O        12.7225501254       -1.9978543623       -5.4475377193
  S        15.5630248192        1.7231120701       -7.2380770127
  C        14.1497619272       -1.1340911522       -7.5443780875
  H        14.0689894369       -2.1542739706       -7.4000033170
  H        15.0533897473       -0.9616806133       -8.1225944684
  C        12.8899364559       -0.7019426599       -8.3894480872
  H        13.1049182943        0.2664097468       -8.8151939452
  H        11.9794880337       -0.5882374395       -7.7831824734
  H        12.7893294621       -1.3978200282       -9.2630643933
