352
 i =   108700, time =    54350.000, E =        99.2035065719
  H        10.5732896089        4.2467625157       32.0279212113
  C        10.6147055514        5.2775550168       32.4062579552
  H         9.6158832020        5.7067383590       32.3641366266
  C        11.5534248421        6.0004761988       31.3967830599
  C        11.1568289367        5.2154840176       33.8405992497
  C        10.7916223352        6.2186366737       30.0928076548
  H        11.8584164974        6.9750690817       31.7533725250
  H        12.4705467864        5.3720178285       31.2875498819
  H        11.8547038430        4.3426347322       33.8735115017
  H        11.6106086288        6.1054733892       34.2910365674
  H        10.2850627092        4.9752074528       34.4294890340
  C        10.5613651533        4.9644186366       29.2273764144
  H        11.3294084173        6.9864616451       29.5686303027
  H         9.8034062562        6.7029737249       30.3280847584
  C        10.9272154013        5.2047340911       27.6758767368
  H        11.3243164547        4.1885178169       29.5675367158
  H         9.6249012579        4.6526320994       29.4310581205
  C         9.7476521446        4.7485481950       26.8125274298
  H        11.8242544818        4.7200496643       27.2889067569
  H        11.0198755005        6.3136791959       27.4180762808
  C         8.6765603955        5.8564991614       26.5949131648
  H        10.1297039873        4.3777092248       25.8313131977
  H         9.3391224379        3.9058753431       27.2750164654
  C         7.4514227690        5.3964536328       25.7904618583
  H         8.3792597647        6.3484545814       27.4623106635
  H         9.0891618567        6.6177022025       25.9649390030
  C         6.9497515815        4.0570919481       26.3113676048
  C         7.8084284546        4.7473914776       24.4942850235
  C         6.2874288001        6.4146685315       25.6842983824
  C         7.1902486621        2.9998531318       25.4937838306
  C         6.3642530723        3.6094268037       27.4871908760
  C         7.6797559202        3.4243337897       24.2672638383
  C         8.3901880007        5.3737206041       23.3585002299
  H         6.6249361295        7.2726351769       25.0870334272
  H         6.0806742151        6.8817979546       26.6142627947
  C         5.0232257508        5.8271168516       25.0621299550
  S         6.7548110482        1.4893589213       26.0807717448
  C         6.3324763346        2.2731467730       27.5820770691
  H         6.1696035975        4.3455262405       28.2841355120
  C         8.0900203739        2.8131504315       23.1388583797
  H         8.5720293484        6.4282567762       23.4653767646
  C         8.8211378658        4.7728293650       22.1730361670
  H         5.1916408995        5.8335309243       23.9843028229
  H         4.7377861154        4.8458839503       25.2591446717
  C         3.7910450037        6.6246950088       25.3004332472
  C         5.9884206934        1.5062011697       28.8296161223
  C         8.6777762359        3.4289169137       21.9795598338
  H         7.8982669652        1.7323075813       23.0999759130
  C         9.3169032851        5.1960397581       20.9266609607
  H         2.9841744911        6.3674537140       24.6758066839
  H         3.9730270532        7.7152049249       24.9753001634
  C         3.2632981031        6.5498644671       26.7525888583
  C         5.9006069442        0.0970096354       28.9490423943
  C         5.6090121762        2.3419242422       29.9553503943
  C         9.1381581790        2.8171832691       20.7234399559
  C         9.5081313414        4.1337233881       20.1253216522
  S         9.6731856047        6.7354341854       20.2117344231
  H         2.3639150722        7.1724715066       26.7368583703
  H         4.0316369231        6.9206182587       27.3714952369
  C         2.8183991860        5.1698794944       27.1714900962
  N         6.1848641343       -0.9150752747       27.9822275786
  C         5.5994577006       -0.5011851916       30.1497520228
  C         5.2373929755        1.6793650573       31.1389004294
  H         5.4771642847        3.4137656624       29.8844400626
  C         8.0441945553        2.0656107921       19.8879196780
  C        10.4629311039        1.9655192925       20.8700016729
  C         9.8410157790        4.5325728901       18.7952527712
  C         9.8896484733        5.8933729740       18.6707564001
  H         2.3899638632        4.5615065439       26.3514160947
  H         3.6473158821        4.7285772825       27.6702832246
  C         1.6624378457        5.2997695013       28.2261051860
  S         6.1512909791       -2.3790699847       28.6648754988
  N         5.5806092054       -1.9304695945       30.0794425656
  C         5.3213532200        0.2037465634       31.3068617640
  H         4.8184428397        2.2138650132       31.9787018663
  H         7.7698568499        1.1678781083       20.5585702200
  H         8.3996027566        1.6942536628       18.9616413849
  C         6.7474978306        2.8609737334       19.5780801263
  H        10.6732783294        1.6303004844       19.8724937058
  H        10.0930253327        1.0948756110       21.4298194427
  C        11.6948089880        2.5457429370       21.5127774382
  H         9.9851348510        3.7693995272       18.0662716284
  C        10.0840949700        6.6873440762       17.3369587249
  H         1.2373676887        4.3226811179       28.3130923711
  H         0.8191522276        5.7783892530       27.7850115986
  C         2.1238326469        5.8797303890       29.5942302091
  C         4.8950434041       -0.4619166553       32.5343912367
  H         6.8664700835        3.6756985723       18.8236306247
  H         6.4045892536        3.3001281963       20.5044816184
  C         5.7350979853        1.9644758354       18.8669418723
  H        11.4373766600        3.2436142307       22.3344950456
  H        12.2259320307        3.2557838347       20.8341347110
  C        12.6213682929        1.4744266940       21.9793481897
  C        10.1203119478        8.0686575089       17.0990206451
  C        10.3286260366        5.8870930312       16.1172625044
  H         2.3114577052        6.9721310553       29.5229904682
  H         1.3471233135        5.6305443494       30.2849902713
  C         3.3443656857        5.2960188947       30.2457919958
  H         5.0468702712       -1.4983440396       32.4316663319
  C         4.5902611595       -0.0597324132       33.8182315469
  H         5.5425432186        1.1773735747       19.6060982139
  H         6.2264765132        1.4404195570       18.0970497319
  C         4.5077187511        2.6094406701       18.3251762009
  H        12.0947632160        0.6596907827       22.5930229160
  H        13.1193228761        1.0598939335       21.1143617189
  C        13.6335717952        2.0346485820       22.9193672820
  N         9.7527299629        9.0272262973       18.1106273888
  C        10.3958782038        8.6503076694       15.8703957463
  C        10.5716381230        6.4786602888       14.8964402858
  H        10.2057394097        4.7836347920       16.1892134046
  H         3.6722359757        5.9413703487       31.0798768130
  H         3.2107783184        4.2322095914       30.5251141499
  H         4.2516063184        5.3596247462       29.6434106955
  S         4.5073903355        1.5442408872       34.3337819787
  C         4.4746494493       -1.0960964563       34.8865899941
  H         4.2834731988        3.4611731066       18.9831148190
  H         4.7430195769        3.0189628210       17.3447944811
  C         3.2867068616        1.6840013134       18.3954454820
  H        13.6737109224        1.3336224799       23.7928926916
  H        13.3995741902        2.9780767227       23.3489709159
  C        15.0009131309        2.1192134612       22.2533193210
  S         9.7730425873       10.4998617776       17.4001362331
  N        10.2053241970       10.0187765937       15.8822104121
  C        10.7065209995        7.9262199975       14.6848034377
  H        10.5964347574        5.7579614118       14.1423642182
  C         4.0862393741        0.8712597021       35.9380211851
  N         4.0612484849       -0.4882880867       36.0300360477
  O         4.6289144205       -2.3282479394       34.7094080039
  H         2.3747741954        2.1646942763       17.9432665638
  H         3.1177246367        1.5467846791       19.4198999677
  C         3.6795370159        0.3979274944       17.6698672239
  H        15.4990103455        1.2427689376       22.5100248573
  H        14.9976525630        2.0162517588       21.1548753507
  C        15.9003014098        3.2776366544       22.6950889985
  C        10.9737642080        8.7107722495       13.4884711215
  S         3.5379954125        1.8167105607       37.4099625057
  C         3.9843064343       -1.2147085829       37.3307135309
  H         4.5215652286        0.3559314595       16.9496227035
  H         3.8503928673       -0.3809874741       18.4542720860
  C         2.4062303178       -0.2562139373       17.0463699970
  H        15.6905563584        3.4051551534       23.7588958738
  H        15.5843298692        4.2159843724       22.2082953949
  C        17.3437068586        3.0311717255       22.4837638996
  H        10.5256119983        9.7047376695       13.4178901224
  C        11.4743758499        8.3071669173       12.3005517351
  H         3.2369082969       -0.7800541780       37.9909001758
  H         3.5888940953       -2.2277471465       37.1850510444
  C         5.3636936859       -1.3896001843       37.9571348481
  H         2.2845576912        0.3226498925       16.1632100700
  H         1.5164057250        0.1194682940       17.4900141034
  C         2.5864731084       -1.7169297963       16.7143630873
  H        17.5146841355        2.7538484582       21.4286339578
  H        17.8075114372        3.9940647085       22.5697174132
  C        17.9918146066        2.0384853613       23.5386481441
  S        12.0209583719        6.8017085821       11.9747824407
  C        11.6176749198        9.2715531433       11.1677369801
  H         5.3660402607       -2.2071212832       38.7048302995
  H         6.1455344335       -1.5669378666       37.2261693419
  H         5.5626284317       -0.4739546690       38.5365794508
  H         2.3519619484       -2.3753849643       17.5525106363
  H         3.5868922389       -1.9868133972       16.3687091975
  H         1.8794234614       -1.9136545765       15.9243301821
  H        19.0605693291        1.9988124537       23.4235473111
  H        17.5984180027        1.0307651234       23.3587094587
  H        17.6158467061        2.3128499035       24.5092415541
  C        12.3418750554        7.3093242732       10.2976221430
  N        12.1264250391        8.6007746892       10.1265387740
  O        11.1603427544       10.4051412718       11.1221434196
  S        12.6508393708        6.2853535327        8.9130323707
  C        12.3337505380        9.2381132451        8.7593778369
  H        12.7346278398       10.1753253889        8.9195244045
  H        13.0487946614        8.6832063264        8.1559941725
  C        10.9886724931        9.3190434061        7.9894707305
  H        10.3602094526        8.3974313223        8.0793176734
  H        10.4847965153       10.1290536080        8.4345091184
  H        11.1169154638        9.5546267606        6.9056277770
  H         2.3227660266        3.0565465960       12.6308745757
  C         3.2329970451        2.5011208965       12.8481395937
  H         2.9329652478        1.4851881498       12.6172624857
  C         4.2884493532        2.9804984236       11.8418379405
  C         3.8604761234        2.7344749582       14.2419459318
  C         3.9338423735        2.7255966569       10.3987030114
  H         5.2813059943        2.5425688166       12.1352987286
  H         4.3454415699        4.0406714042       11.9674240981
  H         4.5602082885        3.6040883317       14.2065736886
  H         4.4812089126        1.8580677093       14.6458284488
  H         3.0757477152        3.0032270111       14.9760896192
  C         4.5835160829        1.5076743421        9.7736736583
  H         2.8576376463        2.6697276210       10.2723714384
  H         4.3123081459        3.6295836760        9.9620931249
  C         5.3569773123        1.7530315997        8.4861999534
  H         3.7886517089        0.7758450337        9.4720270714
  H         5.2753001829        1.0554497625       10.4871718237
  C         6.5928477306        2.6393622608        8.6250578699
  H         4.6322695483        2.4387497802        7.9468986631
  H         5.4664419581        0.8308032194        7.9022035751
  C         7.8866501107        1.8761774208        8.9195687293
  H         6.9046955751        3.2734909321        7.8841973296
  H         6.4108153336        3.3256004401        9.5088994948
  C         9.1153071682        2.8062705241        9.1653597079
  H         8.1299024319        1.2555138704        8.0161438203
  H         7.8112324902        1.2640037004        9.8409352172
  C         8.7082695732        4.1076772803        9.8440050072
  C         9.5997763801        3.5283914954        7.9546174513
  C        10.1736341174        2.1026337646        9.9775869663
  C         9.0323862015        5.2267628847        9.0441486238
  C         8.1755678340        4.5649742972       11.0856007021
  C         9.6224578073        4.8694838962        7.8697289965
  C         9.9805490882        2.9473571539        6.7284012789
  H         9.7139343035        1.9263562483       10.8497962914
  H        10.3654590901        1.1599676661        9.5013470206
  C        11.4596216536        2.8986260481       10.2492085798
  S         8.7189117896        6.6932052340        9.8007796998
  C         8.0785075562        5.9138553707       11.1539940461
  H         8.0204281917        3.7883558045       11.8906155960
  C        10.0917771684        5.5629669514        6.7827006194
  H         9.9562194181        1.8959909754        6.7018931021
  C        10.3959957349        3.5720940844        5.5992624899
  H        11.2937777041        3.9477441946       10.3929929632
  H        12.1459225023        2.9191266085        9.3838207269
  C        12.2533263480        2.2455538442       11.4306556455
  C         7.5489031167        6.6421729014       12.3658096286
  C        10.4314419562        4.9415152188        5.5683735976
  H        10.1749044123        6.7094819141        6.8109633929
  C        10.8392307598        3.2623523000        4.3368309359
  H        13.1715885899        2.8523406593       11.5829245547
  H        12.7169547612        1.2931813312       11.0793025232
  C        11.6146099087        2.2119443128       12.7853095255
  C         7.6485847911        8.0614633530       12.5985131619
  C         7.0637667519        5.7984041206       13.5325823052
  C        10.8480472313        5.6998724807        4.3308726617
  C        11.0263368124        4.3888381578        3.4829370983
  S        11.0423641597        1.8737362415        3.4629262649
  H        10.7938344551        2.9238413054       12.8183141447
  H        11.2321928380        1.1606422316       13.0457344337
  C        12.6609066523        2.3513844802       13.9605035242
  N         7.9819909424        9.0309078977       11.6069020893
  C         7.3636375833        8.5879387004       13.8234383235
  C         6.8344108616        6.4000950798       14.7710852836
  H         7.0906785809        4.7137914335       13.4420899102
  C        12.2258719710        6.4985004381        4.3942621337
  C         9.6960901415        6.5420994469        3.7213035732
  C        11.5315890303        4.0978933992        2.1820276387
  C        11.5139624670        2.7616754669        2.0154440031
  H        13.1537187278        3.3280886338       13.8668844966
  H        13.4549661197        1.6850988042       13.8477256799
  C        12.1912412696        2.3599388133       15.4027677978
  S         8.0106148122       10.4823037702       12.2801301861
  N         7.5879106611        9.9693911196       13.7757969975
  C         7.0308874757        7.8700344330       14.9779708889
  H         6.3241690475        5.7766762610       15.5265542288
  H        12.0803368378        7.2011581936        5.1988422529
  H        12.2897369860        7.0281164250        3.4321745610
  C        13.4893647078        5.6987084757        4.7538176348
  H         9.3571838398        7.2843632955        4.4236884957
  H         9.9450186190        7.0719081156        2.8226916167
  C         8.6048791600        5.6505533790        3.2496604566
  H        11.7222619771        4.9197678575        1.5309865039
  C        11.7265514285        1.9401058845        0.7704383492
  H        11.6368241348        3.2460477345       15.5755231173
  H        11.4453797149        1.5807226372       15.6515395462
  C        13.2619263149        2.3803524609       16.4272349209
  C         6.8223648652        8.5305389332       16.2052172477
  H        13.1574359972        4.9632410797        5.4966071978
  H        13.7674133585        5.0982377232        3.9270641780
  C        14.5826380121        6.6798380192        5.2827032226
  H         8.3627176089        4.8901118120        4.0142024599
  H         8.9245944125        5.1035120142        2.3479592337
  C         7.3909017091        6.4862313080        2.7685952785
  C        11.6404179090        0.4592269461        0.6545538863
  C        11.9091724890        2.6504862298       -0.5652956783
  H        14.2233438220        2.8869865807       16.1388166785
  H        13.2957768345        1.3014775886       16.5197221422
  C        12.7921133002        3.0692578439       17.7802508339
  H         6.9248536322        9.5798136884       16.0865724285
  C         6.4572392288        8.0592164394       17.5071705935
  H        14.1271496643        7.2781903754        6.1137176131
  H        14.6929972092        7.4095491479        4.4182455510
  C        15.9993427005        6.0455368457        5.4953598326
  H         6.9707660543        7.0157572237        3.6173322513
  H         7.6180679226        7.2118655133        1.9605621092
  C         6.1875303056        5.7162527660        2.2462507551
  N        11.3814868901       -0.5402861466        1.6605739494
  C        11.9746926038       -0.2143895177       -0.5443608643
  C        12.1219748790        1.9696595927       -1.7594969511
  H        12.0279902545        3.7347570626       -0.5859067025
  H        13.6532714180        2.8883265694       18.3972006263
  H        11.9463008386        2.4424279786       18.1387336793
  H        12.6007343204        4.1629981015       17.8287798700
  S         6.2082760069        6.5005008397       18.0367542729
  C         6.4194252600        9.1093874623       18.5381688483
  H        16.1643889692        5.1442918328        4.9428707918
  H        16.6950615291        6.7281249631        5.0935565712
  C        16.2710091893        5.8506140727        6.9991726610
  H         5.7965411799        4.9291393643        2.8670468588
  H         6.3910650301        5.1965678885        1.3257009315
  C         5.0244905736        6.6989287659        2.0373781565
  S        11.5796967316       -2.0715383636        1.0748342433
  N        11.7983031041       -1.5862308661       -0.4218082044
  C        12.3270860482        0.4790535511       -1.7638890026
  H        12.1928903982        2.5648101438       -2.6887745687
  C         6.2770425813        7.1826070694       19.6222665906
  N         6.2341976946        8.4826755201       19.7112244434
  O         6.3128784246       10.3389812145       18.3203031401
  H        16.0136520270        6.8151049751        7.5642279924
  H        15.5899438756        5.1023878475        7.4758533126
  C        17.6684134171        5.1864523291        7.1537712119
  H         4.0663189061        6.1056493628        2.0790304914
  H         4.9557070480        7.3858859694        2.8500923092
  C         5.2395581136        7.7067367299        0.8297796727
  C        12.6115115445       -0.2671334673       -2.9557091357
  S         5.9240440126        6.1605290169       21.0700669996
  C         6.2294776299        9.1960049574       20.9913171504
  H        17.6376020614        4.3868025203        7.9314862737
  H        18.0540605333        4.8740375954        6.1696763314
  C        18.7751418976        6.1958034312        7.5394442881
  H         5.2812402173        7.1371868942       -0.0809872071
  H         6.1438582356        8.2569313632        0.7204250282
  C         4.0435183299        8.5660440538        0.6281605314
  H        12.3936279792       -1.3509363088       -2.8648618919
  C        13.2375800659        0.0568462604       -4.0932887995
  H         5.3746531860        8.9391689904       21.6304900620
  H         5.9160790283       10.2101062609       20.8185837058
  C         7.6195558445        9.1749583346       21.6030853075
  H        19.2484757957        5.9032503496        8.4179664298
  H        18.5411765421        7.1900317799        7.8008366982
  C        19.7768591294        6.2663942302        6.4355757947
  H         3.8783793030        8.7042445053       -0.4709694762
  H         3.2742567859        7.9758276923        1.0457093263
  C         4.2032632538        9.9167465191        1.3426666030
  S        13.8754380057        1.6000923244       -4.4781852776
  C        13.3668422196       -0.9360749590       -5.1450482948
  H         7.7729318790        8.3476137848       22.3211200659
  H         7.6868285093       10.0663971847       22.2508001279
  H         8.3420442397        9.1367515019       20.8226476249
  H        19.3358538336        6.9510995078        5.6415421737
  H        20.7067889340        6.6999790916        6.8280663420
  H        20.0295201021        5.2604767968        6.0070835653
  H         4.8306010043       10.6810413624        0.7338714215
  H         3.2474438628       10.3558004018        1.6264715057
  H         4.6698504362        9.8192369039        2.3360541564
  C        14.2379565012        0.9198479045       -6.0125825190
  N        14.0258109282       -0.3694193424       -6.1835141346
  O        12.8411992237       -2.0612164085       -5.0901039659
  S        14.6504983020        1.7906232660       -7.4741583937
  C        14.1098086696       -1.0468635435       -7.4826773550
  H        14.2419969334       -2.0364207430       -7.3467013462
  H        14.9710613740       -0.7722872989       -8.1444451271
  C        12.8112350578       -0.7640983153       -8.1407852957
  H        12.0797347837       -1.4898025981       -7.7302762614
  H        12.8346807249       -1.0555979682       -9.1572283871
  H        12.3432634894        0.1958898056       -8.1466086816
