352
 i =    57900, time =    28950.000, E =        98.7396939379
  H         9.4009968556        4.3717167760       31.0121001377
  C         9.5798481762        5.2789752972       31.6354020914
  H         8.6281268395        5.6649446475       32.0993639197
  C        10.2343830082        6.3744966069       30.8166305428
  C        10.2651417408        4.9459101341       32.8846933175
  C        11.0752060807        5.7289549968       29.7442386990
  H         9.5152420818        7.1908222230       30.3541786165
  H        10.8150632128        7.0048203718       31.5108846773
  H         9.8703216799        4.0593387661       33.3345149948
  H        11.2962313041        4.8653696571       32.6006203412
  H        10.2796463916        5.7482435845       33.5511581913
  C        10.1922913429        5.0206363538       28.6957944638
  H        11.7378405233        4.9672314722       30.1446775034
  H        11.6851683257        6.4905050468       29.3580453099
  C        10.6179158483        5.3176728268       27.1762732816
  H        10.0615997702        3.9754397193       28.9241625923
  H         9.1736798350        5.4959813803       28.7326975558
  C         9.4861061017        4.8544800972       26.2581043577
  H        11.4816719644        4.7618034028       26.8733656307
  H        10.9053962992        6.3319230083       27.0552122233
  C         8.1794699727        5.6767480273       26.1085752863
  H         9.9200180648        4.5723793636       25.3443157793
  H         9.1627518894        3.8960680881       26.5958576024
  C         6.9522013313        4.9020557694       25.5133011349
  H         7.8974254239        6.1284854969       27.0928671945
  H         8.3384682013        6.5019913463       25.4254825838
  C         6.6411939159        3.5227464654       26.1997173845
  C         7.2077162084        4.2537195179       24.2079858615
  C         5.7555008679        5.8252816657       25.5112160235
  C         6.7177671994        2.4862429676       25.3386575029
  C         6.1438363758        3.1179701564       27.4155780829
  C         7.1669139373        2.9087997107       24.0930415724
  C         7.6136541752        4.8526051896       23.0684266124
  H         6.0240416566        6.6856286823       25.0182604739
  H         5.5800610484        5.9906670797       26.6310215403
  C         4.5263387010        5.0852381306       24.9449091479
  S         6.3846806165        0.9317972430       25.9808604634
  C         6.0272835482        1.7090474501       27.4989285245
  H         5.8634644530        3.9378143627       28.0609682966
  C         7.3682206234        2.2782548580       22.9328957869
  H         7.7385293802        5.9411102744       23.0709842055
  C         7.9712306730        4.2108701260       21.9353651623
  H         4.6548056790        5.0890440229       23.9287702479
  H         4.3055901443        4.0719655417       25.2827238875
  C         3.3679689565        6.0089776379       25.1616501608
  C         5.4305837031        1.0565668632       28.7411221242
  C         7.8138462090        2.8727782139       21.8100854412
  H         7.0196218255        1.2229028720       22.8379070153
  C         8.3524986563        4.6486180445       20.6829649738
  H         2.5682401868        5.7162742228       24.4994147633
  H         3.6878204917        6.9601955616       24.7566972838
  C         2.7546534421        6.0015044490       26.5674923312
  C         5.4973261892       -0.3311442701       29.0027148789
  C         4.7583141752        1.7827262311       29.8421054575
  C         8.2906091330        2.1810327315       20.5324281525
  C         8.5827656789        3.5520426232       19.8797812924
  S         8.7538529569        6.1766071840       19.9695059459
  H         2.4278135183        6.9855883654       26.8537348129
  H         3.4839534825        5.8479885625       27.3541842930
  C         1.7864078519        4.8866539245       26.7749756609
  N         6.1428009969       -1.2211046729       28.0963678023
  C         5.1634595798       -0.9325218417       30.2232827548
  C         4.3941304880        1.2519542972       31.0918219282
  H         4.5944749706        2.8731537232       29.7652751115
  C         7.2544423189        1.3331635935       19.7874522389
  C         9.5231561799        1.3574199568       20.8567952545
  C         9.0444574362        3.9659828778       18.5980501719
  C         9.1154657570        5.3301842621       18.5025308184
  H         1.0657088515        4.9586014176       25.9887744320
  H         2.1585287973        3.8740538156       26.5606033900
  C         1.0953271504        4.8428720678       28.0751784956
  S         6.1668900384       -2.7437586652       28.7815515436
  N         5.4961247738       -2.2943897155       30.2228339919
  C         4.7147780153       -0.1602848490       31.3470300747
  H         3.9342459305        1.9500485479       31.7958570638
  H         7.1142439687        0.4522417960       20.3750983742
  H         7.6010092981        0.9996413624       18.8161123375
  C         5.9507551708        2.1175501444       19.6152142617
  H         9.8238906729        1.0241547298       19.8661621373
  H         9.2472110323        0.5501519841       21.5431568453
  C        10.6856539610        2.1549357841       21.5034948497
  H         9.2300371089        3.1904003747       17.8608980391
  C         9.5342110660        6.0677318048       17.2923089812
  H         0.7263518572        3.8719459667       27.9572947739
  H         0.3029190760        5.6657202551       27.9000202946
  C         1.9544828870        4.9788176016       29.3334280835
  C         4.6106614520       -0.7897758282       32.6038382030
  H         6.1092927227        3.0285881198       19.0141009483
  H         5.6604074765        2.5768247857       20.5362485956
  C         4.8159606416        1.2468303102       19.0948161786
  H        10.2347902539        2.4567403168       22.4584295644
  H        10.9176750048        3.0626029556       20.8977569775
  C        11.9507532171        1.3110395688       21.5992085439
  C         9.5919097064        7.4564718811       17.1328885605
  C         9.9599088275        5.2409808249       16.1561310871
  H         2.7555833449        4.1507455578       29.3392066438
  H         2.4876245791        5.9282176200       29.2115595405
  C         1.2310963937        4.9663156666       30.6506406169
  H         4.6992560013       -1.8861190974       32.5503392735
  C         4.3613221880       -0.3372387050       33.9072052386
  H         4.4898510821        0.4515492089       19.7737506314
  H         5.1437017373        0.6546919892       18.1935395324
  C         3.4663631532        2.0153607545       18.8236130299
  H        11.8093048900        0.5281172388       22.3528101143
  H        12.1410350772        0.8647030613       20.6125822659
  C        13.0682272030        2.2845787334       22.1205695636
  N         9.1737942748        8.3491842686       18.1349474388
  C        10.0230299993        8.1786919710       16.0290855064
  C        10.4059036923        5.9166461642       14.9717147884
  H        10.0545814702        4.1864345238       16.1412840204
  H         1.8924751425        4.7769180846       31.4839174101
  H         0.7117732109        5.8908468446       30.8432891752
  H         0.5088162187        4.2503665413       30.7314925127
  S         4.1398478557        1.3369529351       34.4419384596
  C         4.2885177488       -1.3060440995       34.9658220377
  H         3.2104094252        2.7957038101       19.5631530925
  H         3.5213724195        2.5515697888       17.8586177263
  C         2.3051872676        1.0476478131       18.7683937965
  H        12.6692047803        2.6256962439       23.0526393409
  H        13.1932478986        3.1983950828       21.5079111301
  C        14.4515829876        1.7360826149       22.3251831468
  S         9.5354041783        9.8665968062       17.6949215893
  N        10.0619643799        9.5578678296       16.1572348714
  C        10.4272436451        7.4342781754       14.8645733577
  H        10.7536088294        5.3418532552       14.1537739047
  C         3.8513939417        0.6611431642       35.9970893874
  N         3.9002721001       -0.7153989556       36.1005741633
  O         4.4250318349       -2.5336732922       34.8582500355
  H         1.4865160992        1.6728826557       18.4813783223
  H         2.0262358570        0.6397177647       19.7359349564
  C         2.3618009590       -0.2038792831       17.7853905843
  H        14.5380616535        1.1271505701       23.2579081138
  H        14.6597682715        1.0094168911       21.5006009172
  C        15.5035324751        2.8842156394       22.2430258021
  C        10.8363960294        8.1676192455       13.7406213555
  S         3.5756662267        1.5262019791       37.4396129643
  C         3.8128290544       -1.4417172155       37.3860973568
  H         1.9826009188        0.0392315806       16.7460758872
  H         3.3701882675       -0.5321718238       17.6218208199
  C         1.4415470827       -1.3295423740       18.2719556678
  H        15.2901891763        3.6211139010       23.0334462349
  H        15.3259499906        3.3420981324       21.2104002341
  C        16.9364603469        2.3923786321       22.3765977692
  H        10.6844334698        9.2601195435       13.7196344021
  C        11.1685308443        7.7718844151       12.4380234146
  H         3.1761443589       -0.8771389281       38.0718535016
  H         3.3352311645       -2.4181921005       37.2311546643
  C         5.2689828133       -1.6620358093       37.8693124541
  H         0.5442974721       -0.9710344579       18.6587736957
  H         1.9860013034       -1.7894476073       19.0232968359
  C         0.9809694127       -2.3797567795       17.2095757555
  H        17.0282270644        1.4228100549       21.8330079380
  H        17.6448197355        3.1136568991       21.9827170602
  C        17.2340404761        1.9020140446       23.7763287104
  S        11.6091701371        6.2522280243       11.8272142040
  C        11.0880905601        8.7733979922       11.3099373517
  H         5.3970640230       -2.4183979398       38.6528626362
  H         5.9335648411       -2.1254712156       37.1763898194
  H         5.7599970013       -0.7978976839       38.2980657092
  H         0.5588397139       -3.3065906151       17.6819111035
  H         1.8796899317       -2.7442026305       16.6383968031
  H         0.2562858114       -1.8988798208       16.5236801691
  H        18.2246018897        1.6327765122       23.8415916213
  H        16.6045735518        1.0734605367       24.0495752954
  H        16.9732653646        2.7036196577       24.5153568380
  C        12.0264673317        7.0202328498       10.3331693586
  N        11.6160813867        8.2538029279       10.1851593746
  O        10.8109400490        9.9497740389       11.5394989822
  S        12.8996380360        6.2535304815        9.0014741472
  C        11.7696734038        9.0496562777        9.0073351122
  H        12.4870801395        9.8636573345        9.2225655047
  H        12.2483592356        8.4997141731        8.1694447821
  C        10.5180574511        9.5893595761        8.4856636487
  H         9.9113603064       10.2570070800        9.1839349037
  H        10.8660806647       10.0068565296        7.5293406449
  H        10.0367526966        8.6721966678        8.1705948446
  H         4.2855879520        1.1445338928       12.6237019985
  C         3.5037193059        1.8436505144       12.5900843610
  H         3.8864318603        2.8331564330       12.8101463048
  C         2.9850943582        2.1000299550       11.1372110358
  C         2.4578976496        1.3243697217       13.5605816321
  C         4.1352559069        2.4247082612       10.1535528722
  H         2.2656466876        3.0109343551       11.1846442615
  H         2.4111538057        1.2701106459       10.7268811288
  H         1.7270084304        0.7201586641       12.9791620478
  H         1.8764654065        2.2025688842       13.9520369574
  H         2.8256861961        0.8110273433       14.3882760556
  C         4.8149908668        1.1990930734        9.4972749232
  H         3.8091664067        3.1886434113        9.4459193030
  H         4.9164189259        2.9165819773       10.7421793623
  C         5.4540333036        1.6260488413        8.2321862854
  H         3.9298651159        0.6046753395        9.1346342716
  H         5.2652337150        0.5674498565       10.2373616466
  C         6.7242646478        2.4568551086        8.4623560471
  H         4.7376801238        2.2409552694        7.7156961276
  H         5.5689076726        0.8059231523        7.4981252876
  C         7.8514560771        1.8025974153        9.2351313030
  H         6.8790291842        2.7033208486        7.4374542693
  H         6.3936165512        3.4125999860        8.8311915553
  C         9.1121926572        2.6471809608        9.4746507745
  H         7.9916391539        0.9359403773        8.7212497058
  H         7.5067327157        1.4950487848       10.2592549689
  C         8.7145604061        3.9351106551       10.1535493615
  C         9.5803580502        3.3181706538        8.2115669665
  C        10.1978669610        1.8406584759       10.2273786403
  C         8.8937843034        5.0573689881        9.3452779722
  C         8.0804248899        4.3054752062       11.3730804399
  C         9.4680450164        4.6932170720        8.1338576962
  C        10.1497687442        2.7163370174        7.0436851103
  H         9.8815532726        1.6326581968       11.2264856610
  H        10.3739676234        0.8583644418        9.6827069916
  C        11.5206973330        2.5727911531       10.2804406056
  S         8.4192675266        6.5317341615        9.9898725636
  C         7.9605262750        5.7090220000       11.4254830568
  H         7.9876759393        3.5749203027       12.1289793162
  C         9.8599618375        5.3214511728        7.0061039892
  H        10.1138277166        1.6586077647        7.0261929283
  C        10.5311545462        3.3794823957        5.8793657798
  H        11.2419670509        3.6297064964       10.3910069258
  H        12.0821691038        2.4256546365        9.3594650318
  C        12.4091186935        2.0876535621       11.4571976592
  C         7.4697545032        6.3913963351       12.6340979961
  C        10.3727069170        4.7606973469        5.8286458945
  H         9.6988061140        6.3721245786        7.0074548870
  C        10.8933602540        3.0406007004        4.5925782424
  H        13.4446023796        2.4721477138       11.3404297787
  H        12.5369475276        1.0254889955       11.4303697333
  C        12.0060332350        2.5637518767       12.8335024792
  C         7.5248574617        7.7893617147       12.9258708332
  C         6.9938793871        5.5474809646       13.7365348469
  C        10.7835753552        5.4323064930        4.5144688869
  C        11.1182871009        4.0996904399        3.7732390879
  S        10.9933131046        1.4843436827        3.8209246868
  H        12.5861185360        3.3353419565       13.1849132547
  H        11.0015939324        2.9243135659       12.8840471363
  C        12.1640066018        1.5427435630       13.9207750084
  N         7.9301664098        8.7495085653       12.0197149960
  C         7.2042054464        8.2993324377       14.1488957446
  C         6.7031428928        6.0168751093       14.9952494242
  H         6.6366226147        4.5420387195       13.5520282416
  C        11.9926700346        6.3664352663        4.6198637947
  C         9.6364954159        6.2050338112        3.7892263798
  C        11.5378548593        3.6467382565        2.5098711169
  C        11.5344395244        2.2678361809        2.3860254777
  H        13.1346788441        1.2264662657       13.9086335922
  H        11.7301679548        0.6707676789       13.5992933544
  C        11.7020762352        2.1516387146       15.2349429445
  S         7.7876621279       10.2407890765       12.6856085477
  N         7.3309655088        9.7205608962       14.1631406808
  C         6.6773134177        7.5078267149       15.1852675531
  H         6.3597532061        5.3207582155       15.7841859131
  H        11.7195481180        6.8619134464        5.6061472327
  H        12.0183219033        7.1924574201        3.9799217435
  C        13.3515858569        5.6484534095        4.6809020362
  H         9.4417881504        7.0818325209        4.3811214908
  H         9.9889650266        6.6877923321        2.8188272522
  C         8.3752757781        5.3687626332        3.4404630838
  H        11.7266384565        4.4583815617        1.7882170371
  C        11.8818047063        1.4975520886        1.1632553119
  H        11.7902734164        3.2113224249       15.1970834705
  H        10.6839542529        1.8793803075       15.4171888654
  C        12.5356253811        1.7159124710       16.3850101602
  C         6.4326553323        8.1248796549       16.4242669767
  H        13.3386321879        4.9436900277        5.5005387485
  H        13.6298713875        5.0835540872        3.8265410744
  C        14.5272738807        6.5677799882        5.0176441579
  H         8.0432288664        4.9904619143        4.4101522254
  H         8.5951454046        4.5144482255        2.7297283451
  C         7.2177405134        6.1326297531        2.7729705625
  C        11.8678840127        0.0774073524        0.9447301957
  C        12.0958514140        2.2777261544       -0.0701108874
  H        13.6399638310        1.8691110101       16.2178133205
  H        12.3308781569        0.6904024722       16.4467914615
  C        12.1630735323        2.3498476015       17.7304112477
  H         6.7117789427        9.1527866921       16.4537959030
  C         6.0733792801        7.6661062659       17.7142925420
  H        14.3699082831        7.3368866731        5.7557507588
  H        14.7497366368        7.1747519843        4.1715719294
  C        15.7913604360        5.8144135967        5.3483909629
  H         6.9510357177        7.1219970147        3.2736983466
  H         7.5046723004        6.2982330932        1.7480503854
  C         5.9917060807        5.2181307247        2.7492509286
  N        11.5744579777       -0.9048850686        1.9037792197
  C        12.2006861571       -0.5465009970       -0.2227356178
  C        12.4426988419        1.6510782719       -1.2612564280
  H        12.0463713915        3.3452989865       -0.0730222035
  H        11.9730782826        3.3907278901       17.7182490691
  H        12.8895679833        2.1573433916       18.5160183527
  H        11.2141004456        1.8725896650       17.9652815567
  S         5.7622439177        6.0722966241       18.1901221615
  C         6.1403739046        8.6859062901       18.7707462906
  H        15.6605260960        4.7790567740        4.9589854499
  H        16.5967047824        6.2228884979        4.9173432945
  C        16.0692783664        5.7807684642        6.8106896787
  H         5.8567787801        4.9226414827        3.7543423399
  H         6.2470644243        4.2666225460        2.3094095842
  C         4.6819807502        5.7073199544        2.0468015959
  S        11.5739788529       -2.4202083585        1.2777598604
  N        12.0337759249       -1.9404124893       -0.1691028987
  C        12.5891424267        0.1784598643       -1.3602133516
  H        12.5330067789        2.2023178078       -2.1747314878
  C         5.5923590714        6.8266315548       19.8391803857
  N         5.7142882623        8.1502378030       19.9560983418
  O         6.3068380014        9.8579883702       18.5002905368
  H        16.1891759220        6.8486387548        7.0999794917
  H        15.3033283101        5.3625543875        7.3605009205
  C        17.2213606075        4.8723809611        7.0986192512
  H         4.9881510813        5.9120170591        0.9858164730
  H         3.9525276804        4.8731937047        2.0563668493
  C         4.0288627647        6.9343039121        2.7076679717
  C        12.7701909382       -0.5846672511       -2.5683512125
  S         5.1820804577        5.9128937687       21.2871438489
  C         5.7082449112        8.8608163959       21.2378694205
  H        17.0549298580        4.2571210452        7.9719576004
  H        17.3668420410        4.1019707280        6.3268229720
  C        18.5233809547        5.6993279609        7.3497220383
  H         4.2761161623        6.9670697955        3.7513026789
  H         2.9821158675        6.7356928914        2.8137121089
  C         4.2936695520        8.3222542831        2.1192155664
  H        12.5578350993       -1.5947460114       -2.4355608402
  C        13.2513528552       -0.2555269543       -3.8036189540
  H         4.9473555542        8.4407169871       21.8712272254
  H         5.5174437704        9.8730199814       20.9784720530
  C         7.0399586457        8.9301970654       21.9653983766
  H        18.9323704033        5.4481963849        8.3088020668
  H        18.3071230077        6.7805470690        7.4581325332
  C        19.6292655189        5.3809729869        6.3016967611
  H         4.2772707336        9.0734183252        2.8976868814
  H         5.3079483502        8.3039712717        1.7033250786
  C         3.2411004235        8.7611876150        1.1065758134
  S        13.5598575058        1.3198484741       -4.3651752934
  C        13.3374743281       -1.2524340856       -4.8261044939
  H         7.2730405044        8.0271138240       22.5588160774
  H         6.9928955681        9.7622919415       22.6975608376
  H         7.7409173309        9.2277327346       21.2148688721
  H        19.2643018418        5.4062419006        5.3185776979
  H        20.3509860775        6.2128057795        6.4716115462
  H        20.0557436067        4.3649376578        6.5591141281
  H         3.1887518737        9.8621701418        1.1354114757
  H         3.5576452214        8.4490635877        0.0970629198
  H         2.2275441724        8.3646957051        1.3017750137
  C        13.8442346856        0.6354146764       -5.9613225434
  N        13.7953155951       -0.6703255685       -5.9572251087
  O        13.1718877434       -2.4573331504       -4.6248332478
  S        14.3805114716        1.4950439334       -7.4176082738
  C        13.9906328873       -1.5815194742       -7.0813356713
  H        14.1707669291       -2.6050033947       -6.8591766852
  H        14.6716791465       -1.1757608386       -7.7615840564
  C        12.6434807299       -1.6488700378       -7.8527923462
  H        12.6312001914       -1.0116681050       -8.7805992129
  H        11.7708762090       -1.4538048026       -7.2237490068
  H        12.5789939174       -2.6635669783       -8.2029744661
