352
 i =   121400, time =    60700.000, E =        99.5193136227
  H        10.0242125336        7.0963415464       32.0852776866
  C        10.9141499743        6.5201339669       32.2381349726
  H        11.6556080889        7.0909205322       32.7909961914
  C        11.4909056489        6.2203698912       30.8814707832
  C        10.6421757102        5.1976589443       32.9294599458
  C        10.5100902668        6.0993141608       29.7689489718
  H        12.1720975205        7.0480998683       30.6924372136
  H        12.1282576673        5.3536772863       30.9131308483
  H         9.8840510241        4.6701412731       32.3964167838
  H        11.5010531924        4.5549456172       33.2042811652
  H        10.2385829455        5.3863167952       33.8692570351
  C        11.1548620439        5.2377889927       28.7275688740
  H        10.1481327760        7.0072793260       29.3092813358
  H         9.6469278390        5.5570934730       30.1315810168
  C        10.6457092903        5.6059664666       27.3380632711
  H        12.2336405013        5.3839991523       28.7332764417
  H        11.0065386475        4.2142698183       28.9084529125
  C         9.3285504062        4.8990494157       27.0429131643
  H        11.4118134605        5.2453096526       26.6084667668
  H        10.6390291660        6.6578648846       27.1457011327
  C         8.2075039074        5.8555901764       26.6005137293
  H         9.4770809360        4.1136301149       26.3259658948
  H         8.9407277676        4.3429250036       27.9343182015
  C         7.1157067115        5.1541778184       25.8908435315
  H         7.9097156495        6.4518388003       27.4556301418
  H         8.7141612398        6.5272129906       25.9213331180
  C         6.7786832939        3.7115862724       26.5881260055
  C         7.5275088276        4.3830980977       24.6345017102
  C         5.8713190257        6.0176148657       25.7616045587
  C         6.9369680953        2.5997336540       25.7555339184
  C         6.1745691685        3.3042176014       27.7961798224
  C         7.4942834727        3.0916129069       24.6081487425
  C         8.1371498604        5.0607157109       23.5743314443
  H         6.1644066712        6.8571038640       25.1059218981
  H         5.6057970721        6.4183226450       26.7285090964
  C         4.7919535720        5.2989929829       25.0230289740
  S         6.5021436169        1.0886057096       26.4729935998
  C         5.9591844019        1.9794908323       27.9015381845
  H         6.0409585004        4.0945652445       28.6130952655
  C         7.9380068498        2.5095180546       23.4540735280
  H         8.2356264436        6.1083611412       23.5758686355
  C         8.5011312794        4.4187129975       22.3653951307
  H         5.1361992631        5.0641107863       24.0124752219
  H         4.6204808301        4.2927868558       25.4688980288
  C         3.4444876366        5.9205323772       24.9858765498
  C         5.5813274486        1.2399079714       29.1958373638
  C         8.4416264796        3.1228545390       22.2643334039
  H         7.8597372861        1.4254583727       23.3854368576
  C         8.8667198278        4.8026818285       21.0652617547
  H         2.9642054535        5.1059163663       24.5315124512
  H         3.5217206493        6.6954705219       24.2687896467
  C         2.9117989425        6.3597248089       26.3494027025
  C         5.5833450018       -0.1324918468       29.4429322279
  C         5.1158090741        2.0897036043       30.3344392169
  C         8.7947506126        2.3702452547       21.0185227236
  C         8.9591644083        3.6778055134       20.2877322736
  S         9.1466103783        6.2965480464       20.2421260778
  H         2.0109720511        6.9372957565       26.1048341475
  H         3.4973008328        7.1612179954       26.7976380637
  C         2.6863290989        5.0865911199       27.2245029615
  N         6.0548978450       -1.0701709268       28.5416473624
  C         5.2823721681       -0.6676950855       30.6654555350
  C         4.8654719569        1.5224296610       31.5794542020
  H         4.8842975976        3.1239052061       30.2250647642
  C         7.6500232185        1.4977615601       20.3064664690
  C        10.1971662479        1.5207176509       21.0588618720
  C         9.3452942651        4.0855167935       18.9753134754
  C         9.4930074048        5.4381744962       18.7663066462
  H         2.6479188653        4.1038430807       26.5897532602
  H         3.4806156705        4.8915606045       27.9426319884
  C         1.3863330235        5.2164401381       28.0606024679
  S         5.7816324225       -2.4753642623       29.1713629353
  N         5.3615674609       -2.0380935269       30.6765962011
  C         4.8764682919        0.0351053324       31.7452333594
  H         4.5130895286        2.0742196705       32.3279233455
  H         7.4384425890        0.7227299538       21.0082029332
  H         8.0220529518        1.0356828493       19.3454750749
  C         6.4164034853        2.2657600363       19.7991365532
  H        10.4159982582        1.0333709201       20.1299555499
  H        10.1491903267        0.8670193379       21.9926777064
  C        11.3912301449        2.4512715077       21.4190462337
  H         9.4324554041        3.3559005823       18.2184348270
  C         9.8082251168        6.1684007952       17.4304581674
  H         0.9142024510        4.2660027965       28.2352238463
  H         0.6774033691        5.8244348176       27.5616552721
  C         1.6920222451        5.8658019923       29.3666419863
  C         4.5671561184       -0.6475572639       32.9922260816
  H         6.6933359382        3.0648127529       19.0853052591
  H         5.9734051728        2.8604313268       20.6218014503
  C         5.3979366128        1.3591619375       19.1155731160
  H        11.1255744654        2.9190328226       22.3483928763
  H        11.7185823877        3.1569434285       20.6616206385
  C        12.6541856709        1.7512495402       21.8234442930
  C         9.8780421442        7.5533775020       17.2880456724
  C        10.1491327243        5.3589452986       16.3079101585
  H         2.5504309884        6.4138049089       29.2586340537
  H         0.8261681372        6.4769854427       29.7023152355
  C         1.9180754474        4.8246341903       30.4200054738
  H         4.6939941633       -1.7221217892       33.0399661185
  C         4.2614905614       -0.2527398193       34.3333918018
  H         4.6885693643        1.1130848409       19.8743687320
  H         5.8632486247        0.4681768621       18.7524816766
  C         4.7146565143        2.0227145572       17.8647259259
  H        12.4521538278        1.0807824208       22.7240888806
  H        12.8833475696        1.1483747169       20.9963440623
  C        13.9502063925        2.6583455801       21.9825434601
  N         9.7338725317        8.4021635548       18.2973576680
  C        10.1899646270        8.1685831264       16.0867941804
  C        10.5471789707        6.0121476517       15.1294114088
  H        10.1505623709        4.2923955878       16.2892363505
  H         2.4914371820        4.0198023385       30.0040077468
  H         2.4186190544        5.3177167861       31.2507279953
  H         1.0673003068        4.2446894920       30.7854433304
  S         4.0986475890        1.3426658751       34.9899745077
  C         4.0748105585       -1.3424178571       35.3337414925
  H         4.5810432186        3.0040587155       18.1804459729
  H         5.3217298602        1.9516068398       16.9987747661
  C         3.2749061940        1.5332751834       17.5867249389
  H        13.9558763388        3.2646462041       22.9618234250
  H        13.9136562405        3.3863932255       21.2006944661
  C        15.2857735671        1.8916670134       21.7780205300
  S         9.7046369000        9.9680223677       17.7359994150
  N        10.0234723846        9.5340257169       16.1753726277
  C        10.4968817832        7.4768316407       14.9269635989
  H        10.8982979870        5.4527190432       14.2785834978
  C         3.9408930840        0.5130211124       36.5379376857
  N         3.9510840927       -0.8428207661       36.5999915374
  O         4.1896503648       -2.5180132094       35.0780718218
  H         2.8647049649        1.8006046951       16.5718683862
  H         2.6419811315        2.0212893672       18.3655759133
  C         3.2081405675        0.0516076362       17.7167308592
  H        15.2906782911        1.1183769089       22.5145676935
  H        15.4621669595        1.3809642579       20.8222946727
  C        16.5846938518        2.7027225503       22.1531711202
  C        10.7060619550        8.1829299695       13.7246164614
  S         3.6067577319        1.3767559113       38.0079282285
  C         4.0773231341       -1.6490526899       37.7972158973
  H         3.7025199131       -0.4916409031       16.8583604666
  H         3.7327580339       -0.2873729190       18.6041279409
  C         1.7480111701       -0.4939304432       17.7711828722
  H        16.2132547987        3.6663354525       22.4543133781
  H        17.2880762527        2.8265343651       21.3661617770
  C        17.4713164628        2.0845217335       23.2210221735
  H        10.3691122077        9.2050136256       13.8516591374
  C        11.1445310736        7.8520865614       12.4744864672
  H         3.5973273576       -1.1458730520       38.6611183967
  H         3.5822672221       -2.6030790699       37.7046010647
  C         5.6231598335       -1.7989370986       38.1367868090
  H         1.2583896164       -0.5909385240       16.7376362453
  H         1.1909448594        0.1513179466       18.4457757850
  C         1.7803450646       -1.9029887333       18.4837391952
  H        17.7665772449        1.0435679410       22.9693194988
  H        18.3640535627        2.7292968218       23.1522991250
  C        16.9075163106        2.0449161322       24.6552712703
  S        11.6024068472        6.2796417232       11.9097926910
  C        11.1730130519        8.9301491093       11.4482716155
  H         6.0672698372       -2.3447967259       37.2474799162
  H         6.1558352667       -0.8713990728       38.2195413513
  H         5.8306118610       -2.2904539974       39.0846260809
  H         0.8031854378       -2.3106613393       18.6070849448
  H         2.0991972604       -1.6697859127       19.4630135236
  H         2.2910718235       -2.6851236021       17.8041087552
  H        16.7932873514        1.0386752722       25.0936628636
  H        16.0103492809        2.5571081708       24.8119573934
  H        17.6623816925        2.5358800232       25.3569935012
  C        11.9409604463        7.0420699922       10.3301881765
  N        11.6204833887        8.3493244982       10.2985928706
  O        10.8351505763       10.0941590490       11.6174338675
  S        12.4758550669        6.1880619710        8.9156067812
  C        11.6120479736        9.1221929212        9.0394451660
  H        11.7937646087       10.1507962332        9.3438026232
  H        12.5396384889        8.8699507904        8.4627637174
  C        10.4061776633        9.0565199161        8.1966193898
  H         9.9358340790        8.0547872078        8.2973247045
  H         9.7847779499        9.8921680111        8.6221983223
  H        10.5552197085        9.2953433481        7.1399562451
  H         4.7267699747        3.2466881999       12.8227109556
  C         3.6873156046        2.9112023875       13.1568188929
  H         3.3832847184        3.5411797869       13.9039315454
  C         2.7885003506        3.1895785424       11.9499659213
  C         3.7019922322        1.5295127736       13.7032044495
  C         3.4278507055        3.1742352742       10.4884598630
  H         2.3744543951        4.1631713179       12.0764300388
  H         1.9509776648        2.4446788013       11.8762746601
  H         3.9613285403        0.8332210208       12.8563819437
  H         2.6850104534        1.2692154083       13.9803381186
  H         4.3866989159        1.2877329440       14.4456102440
  C         4.3870766283        1.9387686249       10.2096126383
  H         2.5981186632        3.1820070599        9.7937399717
  H         3.9096218404        4.1301151142       10.3159756119
  C         4.9630042107        1.8461293704        8.7641255827
  H         3.8326230053        1.0652781526       10.4658568998
  H         5.1313479298        1.9446894076       10.9597362958
  C         6.2487909762        2.4952543722        8.4121776311
  H         4.2195541316        2.2859051602        8.0919416783
  H         5.0042139059        0.7725415308        8.3856146093
  C         7.4146479569        1.7740112325        9.0365144644
  H         6.2936684683        2.3971141706        7.3341933969
  H         6.3194088631        3.5332900302        8.5051903316
  C         8.7244871548        2.6433980227        9.2483188297
  H         7.6699575406        0.9519410935        8.3982552954
  H         7.0982340574        1.3978820983        9.9967550149
  C         8.3925404275        3.9255098381       10.0294264529
  C         9.2484132027        3.4036378360        8.0524409382
  C         9.8715969452        1.9062566430       10.0460770223
  C         8.7476649323        5.0411952461        9.2585802065
  C         7.9931576044        4.2215745457       11.3446076481
  C         9.2295761426        4.7512833068        8.0145423294
  C         9.7454377287        2.8024295840        6.9535984672
  H         9.4823199975        1.5343606892       10.9572800836
  H        10.0739542103        0.9522790184        9.5889382563
  C        11.1273162314        2.6665819264       10.1416086056
  S         8.3714001731        6.5003270447       10.0287400516
  C         7.9047205093        5.5894103962       11.4859858944
  H         7.7623584286        3.4458723120       12.0249161280
  C         9.4814692048        5.3581167870        6.8167547838
  H         9.7959702886        1.7519247084        7.0256440784
  C         9.9585561788        3.3985622871        5.7524644955
  H        10.9525883304        3.6833201654       10.3588692530
  H        11.7268328576        2.6980064320        9.2230590145
  C        12.2215812080        2.1539016063       11.0872317320
  C         7.5328243771        6.3062934263       12.7096183978
  C         9.9172303030        4.7443490572        5.6093754871
  H         9.3783957727        6.4235774117        6.8340959951
  C        10.4606501723        3.0344002246        4.4852880959
  H        13.1786057394        2.6123275275       10.9289239109
  H        12.3698800500        1.1227356955       10.7440625814
  C        11.7416143574        2.1816235771       12.5709044823
  C         7.4823957866        7.7387224354       12.9410384426
  C         7.0654365512        5.5172342493       13.8530190914
  C        10.3262620929        5.4671719963        4.3151570889
  C        10.5165493814        4.1418750988        3.6195081245
  S        10.9826801152        1.5615486365        3.8116056688
  H        11.2345454527        3.1465419064       12.7154778337
  H        11.0443844815        1.4827952829       12.8185365657
  C        12.8745213471        2.1550442646       13.5863085647
  N         7.7321183529        8.7012738232       11.9766193966
  C         7.1467587384        8.2855954533       14.1450326333
  C         6.6641271311        6.0631608796       15.0666736164
  H         6.8431246081        4.4819704368       13.7774575011
  C        11.6611507139        6.1902639353        4.4130826896
  C         9.2544614108        6.3953897626        3.6160039446
  C        10.9970173018        3.7935092533        2.3259985896
  C        11.0916605185        2.4204405826        2.2185729161
  H        13.6649697426        2.8687922528       13.3567475232
  H        13.4010920351        1.1776511057       13.4354943507
  C        12.3888330648        2.2579487250       14.9874887850
  S         7.8797766855       10.1464698669       12.7125359111
  N         7.3722375670        9.6747775923       14.1908384688
  C         6.7905096471        7.4805905584       15.2906503137
  H         6.2024194233        5.3771320720       15.7571249960
  H        11.6336788866        6.9074581682        5.2949788445
  H        11.8750434395        6.7777480668        3.4901574873
  C        12.8360569199        5.3849980673        4.8712063430
  H         8.8683491144        7.1626761366        4.3171865797
  H         9.6777110406        6.9904632082        2.7677454966
  C         8.0646711180        5.6698764881        3.1281939464
  H        11.2350285282        4.5125258810        1.6038525711
  C        11.5478838471        1.6897847598        0.9946526316
  H        12.1199454439        3.2350814978       15.2856477855
  H        11.5644693119        1.5829894895       15.2644401131
  C        13.4100852883        1.8566457330       16.1395243850
  C         6.5214392710        8.0927202329       16.5121341868
  H        12.6244132341        4.9994786212        5.8717283388
  H        13.0871733976        4.4871926753        4.2796740564
  C        14.0805862548        6.1799970775        5.1185014036
  H         7.7433680825        5.0446323765        4.0287114024
  H         8.3569597491        5.0439136653        2.2992635368
  C         6.9402424368        6.6108499443        2.5055473567
  C        11.5727351113        0.2381561015        0.8481095036
  C        11.6393301749        2.4686906827       -0.2970405285
  H        14.4098603524        2.2662812586       16.0435473913
  H        13.4422609347        0.8296401959       16.3233509385
  C        12.8589528340        2.2699143322       17.5494479827
  H         6.6528042665        9.1139568827       16.4870667253
  C         6.2633273390        7.6505987142       17.8108178693
  H        13.8016249482        7.0217095080        5.8058307409
  H        14.5399838769        6.5871170523        4.2263648956
  C        15.1719978810        5.2635511339        5.7517807625
  H         7.0465709616        7.6451392697        2.9060175371
  H         7.1548745349        6.8231923064        1.4117986144
  C         5.5354755839        6.0835957409        2.5066811979
  N        11.3755052757       -0.6907176456        1.8935129053
  C        11.7452935443       -0.3873596327       -0.3977404003
  C        11.8216107977        1.7727023281       -1.5509597000
  H        11.5388162929        3.5489190646       -0.3099068003
  H        13.2387582516        1.5886685140       18.2677710336
  H        11.7775241235        2.1329032863       17.7842866278
  H        13.3028964530        3.1924188805       17.9828052833
  S         5.9176459099        6.0218901071       18.3399046607
  C         6.3217848461        8.6743579650       18.9159697342
  H        14.7444480375        4.4619612240        6.3285404114
  H        15.6198334745        4.8463015589        4.8934485338
  C        16.2444672239        5.9923798469        6.5064760758
  H         5.0142251326        6.0198292488        3.4814738096
  H         5.4992629213        5.0479440915        2.1463452716
  C         4.5003807621        6.9002782614        1.6238059155
  S        11.3406169688       -2.1745560557        1.2378147429
  N        11.8134310194       -1.7919824191       -0.2779878789
  C        11.9000266331        0.3278755846       -1.5528951234
  H        11.9173187844        2.2660486849       -2.5210937530
  C         5.8041880048        6.7415516225       19.9513204685
  N         5.9053684997        8.0827494025       20.0396875800
  O         6.2881312648        9.8863768746       18.6954734185
  H        16.6502168815        6.7586680822        5.8499199839
  H        15.6494134611        6.4784011824        7.2170461121
  C        17.1028800409        4.9039817728        7.1056445937
  H         5.1021552565        7.1412986686        0.7097326677
  H         3.7090136750        6.2603301363        1.2147460676
  C         3.7845329684        8.0531737460        2.2577508904
  C        12.0685441198       -0.4548427907       -2.7659089226
  S         5.4808887130        5.8619539062       21.3822884765
  C         5.7169112411        8.9268756062       21.2172701540
  H        16.5861103327        4.3646327634        7.8913482752
  H        17.3190451058        4.1332498539        6.3884997908
  C        18.5170469466        5.3170234199        7.4864881530
  H         3.8669834020        7.8661140202        3.3353209394
  H         2.6578435657        7.9821179916        2.0641826936
  C         4.3939330396        9.4381336842        1.9946124964
  H        11.7881658433       -1.5320006819       -2.6973128450
  C        12.7466030123       -0.2118193695       -3.9567308977
  H         5.0884123543        8.4610312835       21.9755359547
  H         5.1877892827        9.8650275538       20.8828567064
  C         7.1971396125        9.1752729785       21.7308359993
  H        19.1174833526        4.6007262622        7.9702657986
  H        18.4279761859        6.1860365869        8.1507101875
  C        19.2495031592        5.8768073446        6.1737977338
  H         4.4103800205       10.0137226631        2.8330690706
  H         5.4006445007        9.3320882756        1.6773768227
  C         3.9870514162       10.2386550827        0.7845022988
  S        13.5284711696        1.2408831156       -4.4337474189
  C        12.6726699099       -1.2438252321       -4.9907762678
  H         7.8426052592        9.4360642155       20.8487667753
  H         7.5133192697        8.1674978543       22.1239624391
  H         7.1845252697        9.9812283123       22.4281449264
  H        18.9724215116        6.9077688131        5.8084375523
  H        20.3080319566        5.9284221319        6.3758962027
  H        19.1133526168        5.2564062525        5.3404054090
  H         3.0199160758       10.6214386014        0.9874749047
  H         4.6815644105       11.0426326383        0.6095825353
  H         3.9879725054        9.5211223668       -0.0369951262
  C        13.9433790832        0.4789102487       -5.9595549828
  N        13.4987810409       -0.8338432801       -5.9969336778
  O        12.3155315934       -2.4104446684       -4.7869974430
  S        14.7439971348        1.1415092646       -7.4337123898
  C        13.7305251758       -1.7458140337       -7.0530384419
  H        13.8366390539       -2.7778107432       -6.8113006141
  H        14.6279378286       -1.6164958793       -7.6074019664
  C        12.6689028064       -1.6569844119       -8.1004166625
  H        12.4026744792       -2.6031944572       -8.5897741005
  H        12.9994405637       -0.9176729301       -8.8688004823
  H        11.7284019400       -1.2099454909       -7.7814262460
