352
 i =    82600, time =    41300.000, E =        99.4198504019
  H        12.0574314599        6.6641380925       32.6034641512
  C        11.6797277131        5.7092855905       32.4884333433
  H        12.5155846673        5.0311230135       32.2020780793
  C        10.5866556360        5.7562426834       31.3539519918
  C        11.1055763388        5.2335646301       33.7725953198
  C        11.2443695042        5.7534030041       29.9786302820
  H        10.1394794995        4.7454812917       31.5539110915
  H         9.9074949756        6.5840345282       31.5035783073
  H        10.5016256037        6.0142877486       34.3140984878
  H        10.6162549358        4.2841512081       33.6201080027
  H        12.0193935206        4.9921847813       34.3567685015
  C        10.1747773270        5.1938824431       28.9577322877
  H        12.2495489378        5.3958027622       29.9011910243
  H        11.2795905039        6.8629662320       29.8100815049
  C        10.6535130190        5.3290471957       27.5444401646
  H         9.8447512534        4.1837664212       29.1217020734
  H         9.2545589005        5.6407904058       29.2788017068
  C         9.6380627722        4.8464741965       26.5399953856
  H        11.5065549786        4.6555945036       27.3236907181
  H        10.9452794629        6.3477457107       27.4025035879
  C         8.3564220507        5.6838875036       26.6158796866
  H        10.1018545605        5.0404575385       25.5861853869
  H         9.5509439953        3.8245627043       26.6040343557
  C         7.1858399765        5.0985978186       25.7977110971
  H         8.0521202848        5.9144454007       27.5965336418
  H         8.6281935130        6.6331906484       26.2002737390
  C         6.7737237857        3.7974139324       26.4338557747
  C         7.5734906094        4.4797651150       24.4927096698
  C         5.9757529229        6.0128373928       25.5940038382
  C         6.8525331754        2.7834644284       25.5292800021
  C         6.1666175923        3.3182129013       27.6013595217
  C         7.3892532656        3.1686130285       24.3174125585
  C         8.2556512848        5.1403238782       23.4441245501
  H         6.3327816543        6.9538695670       25.0707165930
  H         5.7456820081        6.4184756765       26.5570651522
  C         4.7639228469        5.3732377441       24.9519918591
  S         6.3426960850        1.2373433828       26.0784487915
  C         5.9764922055        1.9622832070       27.6394797527
  H         5.8946259945        3.9956156445       28.3596231431
  C         7.7999209235        2.5656432499       23.1107594038
  H         8.4821098054        6.2232167411       23.5843142247
  C         8.6080876986        4.6052485637       22.2392567426
  H         4.9887233603        5.1838672139       23.8986525370
  H         4.5747965079        4.4606789106       25.4148251408
  C         3.5087754407        6.2266253097       24.9246135140
  C         5.7217794294        1.2180813056       28.8876600398
  C         8.3978662692        3.2587716165       22.0430195156
  H         7.6491435125        1.4993655318       23.0344033562
  C         9.0347536890        5.0988231977       21.0157286904
  H         2.8063483186        5.7264274371       24.2386205394
  H         3.6628537244        7.1822582208       24.4519023182
  C         2.8224828279        6.3980319345       26.2720507359
  C         5.6986570838       -0.0998722774       29.1565059183
  C         5.4725596063        2.0435563836       30.1224642787
  C         8.8614092126        2.6676369293       20.7041462320
  C         9.2211118392        4.0911735231       20.1296013366
  S         9.2782267806        6.6794661896       20.2632834153
  H         2.2048202038        7.2908729277       26.1861323191
  H         3.6378521316        6.6569250127       26.9792147558
  C         2.1675834693        5.0399645443       26.6525279306
  N         5.8482590120       -1.0397276981       28.1204843342
  C         5.4792149782       -0.6893735203       30.4226531756
  C         5.2944607644        1.5348953339       31.3911585734
  H         5.4735479253        3.1117596860       30.1374368411
  C         7.8301149388        1.8826874362       19.8368323075
  C        10.1086823157        1.8050096379       21.0772852993
  C         9.6654335881        4.5115554466       18.8553309531
  C         9.7881376531        5.8788645724       18.7592726235
  H         1.4703847675        4.8807128510       25.8571999346
  H         2.8546674060        4.1942919505       26.5649708199
  C         1.5859660325        5.3285266786       28.0535540996
  S         5.9486570969       -2.4707764595       28.8518388291
  N         5.5994830172       -2.0878195341       30.3737560107
  C         5.2406865130        0.0390832366       31.5924462185
  H         5.0653339882        2.2058685728       32.2697772136
  H         7.7064186352        0.9121982223       20.3235096564
  H         8.4003516961        1.5170400036       19.0624583823
  C         6.7620543361        2.6633509973       19.1700333417
  H        10.3757634149        1.2201516771       20.1545046211
  H         9.7824025637        1.0425624265       21.9117775169
  C        11.3098929421        2.5375141137       21.6481434153
  H         9.7985214613        3.7752145172       18.0791130223
  C        10.0715403081        6.6249944513       17.5073667369
  H         0.7623020782        4.6344692094       28.3661950959
  H         1.1068631191        6.3340549604       28.0335959726
  C         2.5505027307        5.1198686060       29.1953779378
  C         4.9248057066       -0.6349550776       32.7793112210
  H         7.1351001265        3.6249801523       18.8079719810
  H         6.0015709795        2.9737909773       19.8954147923
  C         6.1871477168        1.9723230113       17.9475934091
  H        11.1488222581        3.0461672363       22.5941740768
  H        11.6450934468        3.3252418899       20.9183128675
  C        12.4612041221        1.5083979246       21.6979956170
  C         9.9091332339        8.0095441984       17.4145280120
  C        10.6878401966        5.9231830276       16.3566440096
  H         2.9768231785        4.0629615343       29.1448940189
  H         3.3354959627        5.7988097188       28.9532646014
  C         1.9768848920        5.3738758289       30.5235010524
  H         4.9719459022       -1.6692151472       32.6968215707
  C         4.6667011469       -0.2098487835       34.0150371098
  H         6.4827517687        0.9404619753       17.9773973432
  H         6.7371584269        2.4429389494       17.1213795232
  C         4.7050331059        2.0331801928       17.7723209054
  H        12.1943920790        0.7433634940       22.4410332724
  H        12.4933387131        1.1487380292       20.6793137538
  C        13.8732753995        2.0838156359       21.9358599315
  N         9.5599261325        8.8299789997       18.4477100549
  C        10.3132120316        8.7128136074       16.2792613216
  C        10.9867484466        6.5925226232       15.2188071264
  H        11.0930283839        4.9506041558       16.4733714255
  H         1.4126669090        4.5086778284       30.9103543575
  H         2.6913169601        5.5581886003       31.3384533457
  H         1.2716197256        6.1718391353       30.5573708073
  S         4.4326256182        1.4175136012       34.5403813117
  C         4.4735129621       -1.1989692714       35.0858627394
  H         4.2788024580        3.0284195844       18.1295406480
  H         4.4491914730        1.9330733372       16.7004990452
  C         4.0803105918        0.7741838324       18.4691205166
  H        13.9601361713        2.9467964809       21.1986852581
  H        14.6558244360        1.3991503655       21.6618260938
  C        14.1818819095        2.6328989007       23.4036829180
  S         9.6149346520       10.3143898277       17.9201862730
  N        10.0002422953       10.0604962947       16.3364551938
  C        10.8382497800        8.0717576621       15.0375623955
  H        11.1719953166        6.0433124592       14.3274083264
  C         4.1360790951        0.7221069967       36.1674162159
  N         4.2519452405       -0.5972650121       36.2218059634
  O         4.5252090925       -2.3867379970       34.8805944267
  H         4.2520389950        0.8670537558       19.5792209419
  H         4.6087582861       -0.1486875262       18.1321399282
  C         2.6302843313        0.4240105789       18.1528806402
  H        13.3783257895        3.3557674219       23.6032746886
  H        14.2996669525        1.9090999288       24.1645064745
  C        15.4955831815        3.4848605481       23.4366226759
  C        10.9176053314        8.8301959508       13.8099122753
  S         3.7273866124        1.4540176875       37.6862542920
  C         4.2076832485       -1.4609866736       37.3915526728
  H         2.1133354150        1.2993450444       18.6222612592
  H         2.4569721362        0.2990917875       17.0235453403
  C         2.0404971740       -0.7795491206       18.8307745462
  H        15.6080887289        3.8010024574       24.4994488258
  H        15.2700513669        4.3261767686       22.7861360344
  C        16.6600658351        2.6686936671       22.9705952088
  H        10.7283296021        9.8180919150       13.9877842749
  C        11.3724444626        8.5447308227       12.5749361058
  H         3.5057436204       -1.1319057462       38.1631607144
  H         3.8340234860       -2.4419055564       37.1979565243
  C         5.5903513637       -1.4362159427       38.0357627149
  H         1.0401166758       -0.5986103233       19.3019286800
  H         2.6542907819       -1.2083094310       19.6144570789
  C         1.8809987661       -1.9752796163       17.9106845200
  H        16.5178556086        2.2289983684       21.9315899156
  H        17.5194800979        3.2837440282       22.8190304584
  C        17.0731168290        1.5473562047       23.8704889525
  S        11.9630709010        6.9790015199       11.9631698172
  C        11.4041563920        9.6339028368       11.5755092447
  H         5.7079463824       -2.2633845123       38.6968644097
  H         6.3985798211       -1.5444570877       37.3401280569
  H         5.8113181523       -0.4641636746       38.4925943946
  H         1.3345632498       -1.8321589191       17.0308304315
  H         1.5087810057       -2.8622493382       18.3315834305
  H         2.8044043268       -2.1882025386       17.4817596946
  H        17.7548535276        1.8420213740       24.6607994725
  H        17.6670522814        0.8681852768       23.2671389878
  H        16.1439316603        1.0113615417       24.2006441896
  C        12.2190801944        7.8333052422       10.4663584599
  N        11.9959082994        9.1713271079       10.4579985255
  O        10.8936077453       10.7360778054       11.8117843394
  S        13.0982051938        7.2175107838        9.1121224778
  C        12.2256544915       10.0071432649        9.3252544334
  H        12.0418227289       11.0123364849        9.6776413338
  H        13.2422840693       10.0262493788        8.8051801013
  C        11.2248496057        9.7177790648        8.2206370796
  H        11.3334454622       10.2914765174        7.3428057350
  H        11.2913835597        8.6632651538        7.7847940385
  H        10.2525377759        9.7898353748        8.6318632428
  H         2.0240990842        0.9952482120       12.5562357212
  C         2.9207805254        1.5697499508       12.4677648263
  H         3.7367384817        0.8963969487       12.3012227453
  C         2.8799098620        2.5517326955       11.2634171479
  C         3.1842570470        2.3527734911       13.6858244081
  C         4.2894919224        2.7657867472       10.7081230323
  H         2.5290757113        3.5282017121       11.7124781269
  H         2.0787083144        2.1294418151       10.5343027049
  H         2.8835087764        1.6459204788       14.5084208592
  H         2.4661245385        3.1568110555       13.7492999612
  H         4.1953926475        2.7836527625       13.7543520890
  C         4.7575342490        1.4435416275       10.0982333741
  H         4.1452690662        3.5062293017        9.9463365064
  H         4.9863191893        3.1841155403       11.4175951119
  C         5.4090409514        1.6345522823        8.7369907211
  H         3.8516480862        0.7929394595        9.8936126319
  H         5.4300314504        0.9086285813       10.7495563685
  C         6.5968517197        2.6368425874        8.9013227143
  H         4.6340038187        1.9503775641        8.0058690742
  H         5.6860551232        0.6016579882        8.4123718617
  C         7.9035020058        1.8897076010        9.3851825406
  H         6.8754931899        2.9611042312        7.8461554623
  H         6.3941851678        3.5214491331        9.4908173218
  C         9.1355356230        2.8525561335        9.5262985010
  H         8.1187281460        1.1451384229        8.5283247231
  H         7.7468641913        1.4211648001       10.3513581968
  C         8.7338795690        4.2146272794       10.2232001374
  C         9.5204677553        3.5817867961        8.3132272041
  C        10.3389315582        2.1862535369       10.2380127180
  C         9.0178549129        5.3269181235        9.4770806723
  C         8.3229136017        4.6004110218       11.5040242246
  C         9.4797085381        4.9125557906        8.2630249652
  C         9.8413824563        2.9469951240        7.1141552276
  H        10.0061364601        1.5927384841       11.1113210689
  H        10.5577193385        1.2823438641        9.5841971545
  C        11.6206655325        3.0356622289       10.4183319765
  S         8.7243964353        6.8581131277       10.2138933345
  C         8.2694889821        5.9908191055       11.6060551220
  H         8.1225436401        3.9506170512       12.3222582206
  C         9.7962978768        5.5643835162        7.0730863727
  H         9.8341300106        1.8395646758        7.0615337709
  C        10.3232129304        3.5805787683        6.0149485188
  H        11.3885549371        3.8602432916       10.9225701363
  H        11.9029904541        3.3550653489        9.3937680685
  C        12.7402973219        2.2192115521       11.0542473461
  C         7.7901401079        6.7494194888       12.7930050990
  C        10.2565799110        4.9121700533        5.8920315175
  H         9.6312741273        6.6308379476        6.9948337445
  C        10.7562114189        3.1635542291        4.7713110179
  H        13.6531611066        2.8397953720       11.1244786226
  H        13.0040446708        1.3577656908       10.3478373517
  C        12.4559631195        1.7722909403       12.5152269362
  C         7.7351462047        8.1603429362       12.9723209097
  C         7.5659997478        5.9050233761       14.0512049913
  C        10.6879663415        5.6417501513        4.6604362738
  C        10.9873580509        4.2760403784        3.9146587423
  S        11.0510733924        1.6180362371        4.0021838481
  H        11.8160653516        0.9308576664       12.5100332849
  H        13.4605549241        1.4894154393       12.9433791669
  C        11.6657460095        2.7712645796       13.3635158994
  N         8.1213330022        9.1077952470       12.1021671360
  C         7.3268650983        8.7382388813       14.1785838583
  C         7.1170319914        6.4929735809       15.2135170551
  H         7.7836138348        4.8381779521       14.2334791865
  C        12.0041746796        6.4810010219        4.8207735042
  C         9.4943351282        6.3805614529        4.0224293552
  C        11.3340204106        3.8125467908        2.6503176880
  C        11.5130637737        2.4676876862        2.5771954438
  H        10.7686625655        3.0878833656       12.8729748690
  H        12.3649744697        3.6044921140       13.5310892743
  C        11.3651168958        2.1945284602       14.7280379553
  S         7.9267261995       10.6123051752       12.7279577969
  N         7.3399758232       10.1324430383       14.1663015151
  C         7.0060428120        7.9755198939       15.3859332726
  H         6.7691954256        5.8490332617       15.9566883113
  H        11.7084572981        7.3257939052        5.4062392178
  H        12.3407178419        6.8767479800        3.8393588172
  C        13.0784253978        5.6735885100        5.5045294992
  H         9.1468632632        7.1702611928        4.7379876825
  H         9.9444968047        6.8847775038        3.1494941044
  C         8.2094989473        5.7221202261        3.5908854872
  H        11.4723478136        4.5719124414        1.8842925660
  C        11.8929376475        1.7161444948        1.3069352842
  H        10.5172734644        2.8047261005       15.0990222063
  H        10.8858029256        1.2347540261       14.4270719014
  C        12.4253414043        1.8656363198       15.8086040962
  C         6.8833658535        8.5892297740       16.6516994410
  H        12.7729837426        5.4459997491        6.5010406924
  H        13.1551223852        4.6290325191        5.0171321328
  C        14.4745541788        6.2747695698        5.6272863619
  H         7.7032243816        5.1525536826        4.4029778301
  H         8.4899661011        5.0418385310        2.7396655772
  C         7.2919555268        6.7494561841        3.0673378055
  C        11.8632025260        0.3219112825        1.0963566813
  C        12.3333753526        2.5403455781        0.1640927733
  H        13.4057334520        2.0464398028       15.3663518477
  H        12.3358358133        0.7725438505       15.9713839898
  C        12.2800431236        2.4968462969       17.2274227858
  H         6.9355484168        9.6590529698       16.7128357258
  C         6.4597394864        8.1357755759       17.9030740475
  H        14.3583170819        7.0905118805        6.3324450521
  H        14.8200125552        6.6392969451        4.6336562199
  C        15.3992958576        5.2420486691        6.3393947905
  H         6.6736615753        7.1829465331        3.8325720920
  H         7.7625958236        7.5169712271        2.5841373520
  C         6.4241462616        6.1333169185        2.0214882705
  N        11.5124384423       -0.6301777290        2.0776102892
  C        12.1634593562       -0.2607546310       -0.0913347430
  C        12.5173334787        1.8964011959       -1.0968607136
  H        12.1599747346        3.6051548760        0.1446960990
  H        12.5379308133        3.6005397188       17.3055812070
  H        12.9276028106        2.0191747984       17.9461439187
  H        11.2752969925        2.4444895821       17.6241684306
  S         6.2465608358        6.4877461211       18.2644206135
  C         6.2186224558        9.0697560785       18.9798896352
  H        15.4203457843        5.3296731780        7.4124083313
  H        14.9587999013        4.3059832284        6.1425109195
  C        16.7197321989        5.0949652470        5.7172428546
  H         6.4502547605        5.0915417943        2.0128387684
  H         6.6842382704        6.4609072016        1.0308664796
  C         4.9194604822        6.2981068517        2.4160426050
  S        11.7676767255       -2.0623872463        1.4649883949
  N        12.0514953337       -1.6509629494       -0.0721179194
  C        12.3964139919        0.4325295635       -1.2709950153
  H        12.6092591940        2.5903356006       -1.8838701353
  C         5.7755960478        7.0322767298       19.9055466455
  N         5.8293992915        8.3466454835       20.0563187006
  O         6.3102965174       10.3163508335       19.0060838834
  H        16.5993474938        4.4623074114        4.8540538159
  H        17.1225627665        5.9934423415        5.3900429738
  C        17.7863210563        4.5293923345        6.7096239301
  H         4.2807170725        5.7405833816        1.6906409816
  H         4.5749058791        5.9878860165        3.3779869149
  C         4.4854912111        7.7915373174        2.3335273750
  C        12.5977849328       -0.3315423578       -2.4852127144
  S         5.6758362927        6.0007325594       21.3603265087
  C         5.7099566126        9.0565610397       21.3351948852
  H        17.2367670636        3.9246645957        7.4416118580
  H        18.4699968450        3.8300760402        6.2026024421
  C        18.5976831070        5.6043160571        7.3754223415
  H         4.9714223644        8.4314655098        3.1373005313
  H         3.4117963043        7.8590392686        2.6903297047
  C         4.8790617157        8.5115368764        1.0750102844
  H        12.5505080272       -1.3986677478       -2.4467008632
  C        13.0183086835        0.0549532517       -3.7488463608
  H         5.0105840710        8.5998221801       22.0387088004
  H         5.2341621623       10.0646674280       21.1648603159
  C         7.0420683961        9.2254802029       21.9229077263
  H        18.7198779683        5.3273656872        8.3988654898
  H        18.1475049038        6.5560091817        7.2809514699
  C        20.0613324326        5.7041537898        6.8553561194
  H         5.8637060506        8.9716137424        1.2511098215
  H         4.9239001659        7.8144737953        0.2754921033
  C         3.8667023498        9.5609471729        0.6471029053
  S        13.4608950462        1.6883417611       -4.1575857126
  C        13.2874842197       -1.0092735707       -4.7819415017
  H         7.4443490290        8.2533288967       22.2511278425
  H         7.1091139151        9.8621725046       22.7712232937
  H         7.8641570467        9.6777085489       21.2969332866
  H        20.4677316598        6.2516533373        7.6865769636
  H        20.5120228373        4.6941344583        6.7965142767
  H        19.9951852288        6.2577680712        5.9377875168
  H         3.9821359316       10.5145080502        1.2180865914
  H         4.1843985032        9.8244182489       -0.3144526194
  H         2.8118492610        9.2507069635        0.5732166521
  C        13.9680621467        0.9944100659       -5.7085059946
  N        13.8481285546       -0.3835954972       -5.8527525952
  O        13.2047963177       -2.2239686740       -4.6229073105
  S        14.4821600359        1.8354683283       -7.2029585965
  C        14.2772155352       -1.0984467290       -7.0648549997
  H        14.3372302800       -2.1778939015       -6.8763251335
  H        15.1513849181       -0.7662209630       -7.6304248004
  C        13.0838846239       -1.0214291872       -7.9965679712
  H        13.1783370918       -0.3390820891       -8.8603981521
  H        12.1270879293       -0.8899941791       -7.4760141509
  H        12.9784945057       -2.0076842952       -8.4334652689
