352
 i =    73700, time =    36850.000, E =        98.3341482029
  H        12.0491115335        7.4013443022       32.7167958747
  C        11.9526654206        6.3107374312       32.5649742924
  H        12.9801778531        5.9370612571       32.4820974561
  C        10.9825033784        5.9409957808       31.4255556105
  C        11.4024394907        5.7652222327       33.8741916926
  C        11.7242659845        5.8707755652       30.0490450167
  H        10.5724545791        4.9749659742       31.5771072087
  H        10.1987101149        6.6979223244       31.2843973206
  H        10.7899240598        4.8440279441       33.7886666672
  H        12.1673670972        5.5493575527       34.6119831327
  H        10.7848340949        6.5854410585       34.2612297362
  C        10.7385539190        5.6265545992       28.8740758415
  H        12.4480257996        5.1015936715       30.0874208069
  H        12.2418918322        6.8234154021       29.9170474855
  C        11.1826182229        5.8972358549       27.3574295323
  H        10.3135036960        4.6367538425       29.0247333491
  H        10.0776240853        6.4366546535       28.9679434373
  C        10.1307370668        5.2777016173       26.4101957829
  H        12.0599312293        5.2894932417       27.1552736697
  H        11.4391060787        7.0282464260       27.1996172432
  C         8.7940780967        6.0053628195       26.3827268119
  H        10.4364530244        5.2926932800       25.3683727101
  H        10.0404121063        4.2696592931       26.6379646346
  C         7.5701028023        5.3288116456       25.6946080814
  H         8.4928309336        6.4560336066       27.3006517942
  H         9.0916330498        6.8303365752       25.7398841210
  C         7.1850959520        4.0397126774       26.3816897218
  C         7.8743463895        4.5643828441       24.4187563611
  C         6.3158461552        6.2910946819       25.6673912934
  C         7.4463687147        2.9137090205       25.6080167010
  C         6.6058014013        3.7176810380       27.5869151182
  C         7.9193307583        3.2178685643       24.3705424931
  C         8.3061194726        5.1223359931       23.1996571678
  H         6.4476672725        7.1690315820       25.0877324859
  H         6.0873914296        6.6714867950       26.6811161265
  C         5.1085958110        5.4947453506       24.9621547509
  S         7.1068814753        1.4363130913       26.4319392225
  C         6.6570859825        2.3617938247       27.8330756759
  H         6.3372182063        4.5393188354       28.2757986301
  C         8.3225003168        2.5218961290       23.2387360628
  H         8.5013873135        6.1800257086       23.0445281003
  C         8.7477572609        4.4359404718       22.1428067773
  H         5.2937883699        5.2005580350       23.9322622951
  H         4.9336158326        4.5971800289       25.4838034009
  C         3.8176436195        6.2619069171       24.9635889225
  C         6.0746127245        1.6878359258       29.0095407575
  C         8.7209028393        3.1050647392       22.0497046280
  H         8.4046189025        1.4432326491       23.3428501759
  C         9.2029300995        4.8400249394       20.8994371998
  H         3.1429735104        5.6925987423       24.2919076347
  H         3.9709689809        7.2249448678       24.4892989901
  C         3.2206585141        6.5310617824       26.3504340627
  C         6.1008130957        0.2555513885       29.2489582849
  C         5.4924388584        2.4597252183       30.1166385442
  C         9.1326648248        2.3817362521       20.8665482044
  C         9.3193875810        3.6558841204       20.1200882031
  S         9.2644197837        6.3044617333       20.0590378846
  H         2.4197574888        7.2831943649       26.2667346575
  H         3.9007114052        7.0917257854       26.9333777072
  C         2.6815443266        5.2860796391       27.0753490566
  N         6.5004990841       -0.7261678183       28.3196054341
  C         5.7615416319       -0.3167374506       30.4356415353
  C         5.1903937395        1.8969208527       31.3049925519
  H         5.2671123506        3.4990423395       29.9898770116
  C         7.9594232771        1.4607482939       20.1701266846
  C        10.4853882641        1.5790816900       20.9838984635
  C         9.7525466538        4.0110892052       18.8594115823
  C         9.6954797849        5.3840273373       18.6773864408
  H         2.3605169769        4.5053224730       26.3423711452
  H         3.5788548497        4.7772444829       27.4490862252
  C         1.6627273567        5.4585113546       28.2216188339
  S         6.3643276324       -2.2208628774       29.0159911724
  N         5.8804800260       -1.6960962125       30.4624125828
  C         5.4514953584        0.4945417886       31.5675551911
  H         4.7273796942        2.5159514050       32.0526135470
  H         7.5821238402        0.8425708232       21.0345651314
  H         8.4676302644        0.8102207320       19.4068046965
  C         6.7191445366        2.2257905546       19.6858147465
  H        10.6494694327        1.0241750056       20.0220287428
  H        10.1949674320        0.8473808676       21.7425019318
  C        11.6396770966        2.3685217218       21.4840097484
  H        10.0391150455        3.1862407688       18.2259668893
  C         9.9870065465        6.1011587760       17.3868284124
  H         0.9052806786        4.6408703222       28.3909667476
  H         1.1006762047        6.3694270203       28.0641095028
  C         2.3653842906        5.6078059687       29.6140232843
  C         5.3199409684       -0.0670918761       32.8990875799
  H         7.0670485519        2.9311591803       18.9099384211
  H         6.2719322877        2.8479873262       20.4537459998
  C         5.5828934611        1.3088442797       19.1794396391
  H        11.3472405956        2.8671737171       22.4598629720
  H        11.7987411770        3.3036818434       20.8729461034
  C        12.9051341022        1.5561578355       21.6351588651
  C        10.0886912971        7.4902892895       17.1751901278
  C        10.3920430707        5.2633305865       16.2395995122
  H         3.1151324094        4.8301142448       29.7671679352
  H         2.9391843539        6.5450973519       29.6447994908
  C         1.3866010950        5.4597836287       30.7323279356
  H         5.5366487803       -1.1414238675       32.9599289876
  C         5.0460118390        0.5528163370       34.0610460445
  H         5.3855371793        0.6638813070       20.0395947106
  H         5.8344174517        0.6751638597       18.3135638253
  C         4.2800158355        2.0040953242       18.7395531894
  H        12.8223479927        0.9722645095       22.4988851045
  H        12.8770626526        0.8525484812       20.7330477021
  C        14.1450932796        2.4070667916       21.7341468698
  N         9.9461946642        8.5109904527       18.1268119290
  C        10.3898316713        8.0044990017       15.9502692888
  C        10.7084454325        5.7700795643       14.9543450710
  H        10.4440045501        4.2176743904       16.2773399922
  H         0.5757790231        6.1712690201       30.8773653492
  H         1.0733361799        4.4338631278       30.8167700447
  H         2.0681574177        5.7527623200       31.5725688447
  S         4.6841526787        2.1796425721       34.4733055291
  C         4.8470943747       -0.4455276216       35.1644766117
  H         4.0514863169        2.6150313730       19.5999216009
  H         4.4679794735        2.5450742415       17.7877307479
  C         3.0636046314        1.0778200948       18.6760621412
  H        14.0992811753        3.1884505983       20.9632556894
  H        14.9747556269        1.7158603752       21.5075699655
  C        14.3970495851        2.8238350688       23.1206625888
  S        10.1849445819        9.9252831720       17.3911822824
  N        10.5102946767        9.3680225656       15.9191587849
  C        10.6279197784        7.2506545538       14.7531901724
  H        10.7556903653        5.1057432123       14.1191384568
  C         4.4077156622        1.5873561870       36.1265375589
  N         4.3776930518        0.2544109005       36.2690527822
  O         4.9834357698       -1.6368827234       35.0452938110
  H         2.1573469669        1.7173688969       18.7665744213
  H         3.0252245475        0.2949252439       19.4872937713
  C         2.8578968467        0.3719216847       17.2136165553
  H        13.4625859885        3.2914652189       23.4953048082
  H        14.5785619363        2.0008681680       23.7399120062
  C        15.5480281425        3.8678721560       23.3312633274
  C        11.0689043966        7.9475242842       13.5664524132
  S         3.8140623721        2.5943434097       37.5344024029
  C         4.3318061036       -0.5339969280       37.5414566099
  H         2.6423237518        1.1953808984       16.4928643239
  H         3.8768407035        0.0085705282       16.9469022603
  C         1.8298628663       -0.7271262748       17.2807778347
  H        15.7921166460        3.7436548670       24.3382136587
  H        15.1697235114        4.8298811120       23.1377294633
  C        16.8558924789        3.4771566182       22.5414264424
  H        11.1089610726        9.0027815478       13.7192894449
  C        11.5050632576        7.5622695960       12.3615529053
  H         3.6159134688        0.0501733621       38.2185427283
  H         3.9448919532       -1.5596301840       37.5125402856
  C         5.7048113680       -0.6518271729       38.1507058249
  H         1.3898373392       -0.7777602782       16.3211216285
  H         1.0153150042       -0.4701409002       17.8879060649
  C         2.5929633646       -1.9777272278       17.7072227177
  H        16.7219053298        3.2182915896       21.5008614220
  H        17.4716385719        4.3252071981       22.5517268596
  C        17.6370210104        2.3238067952       23.3063015283
  S        11.8601785286        5.9667274869       11.9715524402
  C        11.7656882101        8.5483248484       11.2918323714
  H         5.7002349201       -1.5397676494       38.7626205175
  H         6.4809857725       -0.6413449322       37.4267351380
  H         5.9349559029        0.2295164427       38.8009111326
  H         3.3347132306       -2.3358160334       16.9779763467
  H         1.8318541633       -2.7588073931       17.8611339788
  H         3.1315833963       -1.8695716508       18.6126019481
  H        18.6691854548        2.1597407462       23.0582482397
  H        17.1215003513        1.3611722368       23.4976442014
  H        17.7811276051        2.7619773541       24.2767248518
  C        12.3747282624        6.5451849574       10.4376788399
  N        12.3195434563        7.8814922267       10.2941109587
  O        11.5783028810        9.7379686165       11.4234100806
  S        12.9412632022        5.5130663748        9.0859289826
  C        12.7285487319        8.5923180212        9.0989574536
  H        13.3464582599        9.4949305295        9.3157339338
  H        13.4175086980        7.9760003076        8.5203782047
  C        11.5068540021        8.8292414510        8.1767220851
  H        11.0465671232        9.7620480504        8.4649362887
  H        11.8119975344        8.8540679088        7.1383591598
  H        10.7895384910        7.9834665623        8.1601776975
  H         1.8348042120        1.9133694864       12.7531965851
  C         2.8703434884        2.1957679276       12.5745435020
  H         3.2767979154        1.2350578799       12.2076075128
  C         2.8970049452        3.2314099747       11.4437718424
  C         3.5051047698        2.5792903684       13.8885792132
  C         4.2026431354        3.1139495279       10.5756666090
  H         2.9108895284        4.2366613049       11.7145693430
  H         2.0216262734        3.0531115860       10.8486071024
  H         3.9675380388        1.7444241634       14.3343372790
  H         2.8973524314        3.1939063617       14.5640897329
  H         4.2952914661        3.3211982575       13.7640561862
  C         4.4400122930        1.7258852416        9.8289426839
  H         4.0874711148        3.8344792200        9.7455292828
  H         5.0949583281        3.4033612746       11.2061469188
  C         5.0717916337        1.6864732712        8.4692821822
  H         3.4769689113        1.2243818856        9.7251157639
  H         5.0930425932        1.1442932617       10.5120416118
  C         6.3325503384        2.5211496892        8.4413666888
  H         4.4124108441        2.0367671509        7.7386870981
  H         5.1485212465        0.6595963571        8.1964195068
  C         7.5655906744        1.8211295247        8.9737693416
  H         6.3594129851        2.9085769367        7.3879952518
  H         6.1407848030        3.4344705380        8.9751512145
  C         8.8748712772        2.6014091098        9.2217978884
  H         7.8390418251        1.1266276574        8.2303001775
  H         7.2292682306        1.2476316504        9.8572893720
  C         8.5619888285        3.9445954051        9.8602928967
  C         9.4103174759        3.3458858395        8.0208541939
  C         9.9256954646        1.7932811636        9.9864708652
  C         8.9795395013        5.0412484291        9.1262834565
  C         7.9611765470        4.3032573182       11.0580715013
  C         9.3851044187        4.6791336159        7.8629260119
  C         9.8606285622        2.7904507744        6.8025564542
  H         9.5105151147        1.5565188865       10.9482939283
  H        10.1036152615        0.7571374503        9.6522283062
  C        11.2425099828        2.6015086357       10.2744366661
  S         8.6077842441        6.4935252770        9.8995474291
  C         8.0381685280        5.6821920576       11.2837895945
  H         7.7269908777        3.5591667616       11.7238985874
  C         9.8388884790        5.4135411763        6.7898989647
  H         9.7230812730        1.7461322869        6.6370648467
  C        10.3661749684        3.4727848942        5.6909210640
  H        11.0765985840        3.5207205145       10.8610443878
  H        11.7167631903        2.9329173470        9.3602526001
  C        12.2328144179        1.7914063906       11.0966487406
  C         7.6668882636        6.3215862879       12.6105211822
  C        10.3226098461        4.8523458118        5.6462543496
  H         9.8048661478        6.5176306029        6.7724662089
  C        10.8180408680        3.1316224617        4.4488706505
  H        13.1513765548        2.3581484447       10.9062695519
  H        12.2896445512        0.8254132453       10.5230151819
  C        11.8028221497        1.8263320592       12.6261963142
  C         7.7808441566        7.6814473214       12.9495919663
  C         7.1379629539        5.4888477145       13.7343876607
  C        10.7169674325        5.6303996350        4.3914760520
  C        11.0167834678        4.2809791204        3.6838772379
  S        10.8769104579        1.7251993321        3.4985777842
  H        11.2128509172        2.7022931919       12.8923417708
  H        11.0648391702        1.0251418813       12.8014477404
  C        13.0007572637        1.6722921334       13.6310808016
  N         8.2725151021        8.5934949711       12.0032229410
  C         7.5493906695        8.2430082271       14.2280770136
  C         6.9251480792        6.0418457384       14.9999717833
  H         6.9122377143        4.4424721745       13.5908935421
  C        11.9890671868        6.5354414271        4.4962165155
  C         9.6128800248        6.3888704909        3.5722112003
  C        11.4830654638        3.9751729842        2.3749947230
  C        11.3627959618        2.5946401612        2.1439791713
  H        13.1493293910        2.6367307899       14.1445131133
  H        13.9497781658        1.5453363476       13.0592723511
  C        12.8802460493        0.5736040460       14.5924755984
  S         8.2068453842       10.0761177045       12.7008215413
  N         7.7418798118        9.5848719065       14.2021331452
  C         7.1035163916        7.5071456188       15.3275854457
  H         6.6137358315        5.4103560930       15.7918065510
  H        11.8959446272        7.2620740256        5.3290629537
  H        11.9898448330        7.0871793464        3.6071473761
  C        13.2828901959        5.7715807710        4.6644516186
  H         9.5844098799        7.4549505470        3.8895259350
  H         9.8856461831        6.4273634769        2.5083661730
  C         8.3439851091        5.6136338525        3.3426629368
  H        11.7532556697        4.7147021321        1.6751473373
  C        11.6366450047        1.8716810822        0.8716048930
  H        12.2723196261       -0.1853678029       14.0834992781
  H        13.8633637458        0.2023912365       14.8195449118
  C        12.0729140747        1.0262594876       15.8206979008
  C         6.9554780970        8.0994288346       16.6093139746
  H        13.2574643331        5.1143606962        5.5370720270
  H        13.4127303315        5.1369400114        3.7886060962
  C        14.5377362247        6.6010970993        4.9405092990
  H         7.7633527517        5.5701667195        4.2439395385
  H         8.5885902002        4.5995957173        3.0924713032
  C         7.6290202555        6.2084374928        2.0967516362
  C        11.6985459698        0.4072960651        0.7479692092
  C        11.8809715206        2.5638822936       -0.4369429096
  H        11.5775934412        0.1795568779       16.3378746919
  H        11.2426520374        1.4843447872       15.3036326440
  C        12.8795007202        1.8263108699       16.8837150966
  H         7.2041751392        9.1553883916       16.5706504987
  C         6.5384240827        7.7362419569       17.8797274549
  H        14.3751352010        7.4674503345        5.5624130697
  H        14.9007540686        6.9831554273        3.9437046568
  C        15.6361249731        5.7910374783        5.5236994432
  H         7.8210668837        7.2313524033        1.9394148143
  H         7.8573732862        5.6898062635        1.2116140198
  C         6.1741134170        5.9696460487        2.3064577077
  N        11.5534102723       -0.5370433483        1.7575071166
  C        12.0477935731       -0.2403382434       -0.3816005444
  C        12.1821204732        1.9307906786       -1.6372046144
  H        11.8100069867        3.6320220424       -0.3726617173
  H        13.6339664489        2.3916402957       16.4614741567
  H        13.3675232735        1.3477794359       17.7782073304
  H        12.1323751374        2.6003356186       17.2667127492
  S         6.1581037664        6.1389455995       18.4561092009
  C         6.5918428637        8.7724650467       18.8908950789
  H        15.2964183817        5.3681023028        6.5066644187
  H        15.7810879291        4.9483804107        4.9113274197
  C        16.9135742558        6.5707959685        5.7059178127
  H         5.8999066652        6.3454044327        3.3276363587
  H         5.9480549156        4.8870078790        2.3112824075
  C         5.3189612129        6.6506834167        1.2371958491
  S        11.7519412371       -2.0704893697        1.2166001138
  N        12.0783704307       -1.6391919997       -0.2980047019
  C        12.3063743122        0.4207289490       -1.6287677750
  H        12.2219933782        2.4683387240       -2.5949314851
  C         5.9577474717        6.9667397586       20.0073945672
  N         6.1978009013        8.2832373687       20.0670902308
  O         7.0247509698        9.8601814509       18.7408365659
  H        17.3118996352        6.8203365937        4.7039347754
  H        16.5752861112        7.5090016452        6.1947949469
  C        17.8649046549        5.7121098910        6.5083400674
  H         5.7457809529        6.3810438434        0.2371239546
  H         4.2711167827        6.2277041007        1.2527073617
  C         5.2302436834        8.1342750404        1.5591379171
  C        12.7816023375       -0.3803277976       -2.7685898705
  S         5.4784844620        6.1873890922       21.4984159090
  C         6.3012094915        9.0265125068       21.3265707765
  H        17.4416438704        5.4731278849        7.5295746567
  H        18.0099902124        4.7174695316        5.9881121176
  C        19.2601694008        6.3268500262        6.7261897349
  H         5.8139419541        8.6629845855        0.7942020202
  H         5.5376910908        8.3538575357        2.6034510559
  C         3.7175227902        8.6882312963        1.4197553847
  H        12.4397479924       -1.4022544149       -2.7045258013
  C        13.2378422892       -0.0279414806       -3.9498341320
  H         5.6794912714        8.6348707264       22.1989157919
  H         5.8759222570        9.9811653087       21.1118695650
  C         7.7871124872        9.0669926684       21.8435858245
  H        19.6613980166        6.1956288716        7.7179365422
  H        19.2409447462        7.3940118680        6.5258678674
  C        20.3106215305        5.6974147676        5.7759333228
  H         3.3874677763        8.5657568330        0.3608507651
  H         3.0953535496        8.0324661382        1.9590129288
  C         3.6523321356       10.1294494819        1.9732646401
  S        13.7605882439        1.6223092286       -4.4283752364
  C        13.2565626485       -1.0573355167       -5.0077206369
  H         8.5577576495        8.7078161555       21.1435262303
  H         7.8689406234        8.4456672980       22.7556714818
  H         8.0385918669       10.1104296322       22.0272289725
  H        19.9907121510        4.6732297149        5.4708548604
  H        20.3759736745        6.3506170247        4.9123313855
  H        21.3151534721        5.5320447733        6.1789163140
  H         3.2101324998       10.1363259451        2.9397309047
  H         4.6043889182       10.5881651650        2.1607583371
  H         3.0260377008       10.7350192069        1.3363991870
  C        14.0365020043        0.9144869201       -6.0462414987
  N        13.8015196645       -0.4013017780       -6.0944443017
  O        13.1063684471       -2.2722545435       -4.8202192070
  S        14.3735347368        1.7016398992       -7.4244277596
  C        13.7789221300       -1.1737782169       -7.3908378989
  H        14.1460540143       -2.2592856869       -7.2136338810
  H        14.5334920590       -0.8206854930       -8.1355744092
  C        12.3907590502       -1.0413154158       -8.0561253848
  H        11.6463786988       -1.4859486962       -7.5119399608
  H        12.3874566162       -1.5020980481       -9.0669998490
  H        12.1302675067       -0.0863751906       -8.1675617191
