352
 i =   123800, time =    61900.000, E =        98.5928266756
  H         9.0966293360        5.8473827640       32.4697236662
  C        10.1888824966        5.9156847788       32.5089069344
  H        10.1275916272        6.8166902823       33.1591885686
  C        10.8054788371        6.1973682254       31.1600109830
  C        10.8081434004        4.8352045210       33.3908033757
  C        10.3773859731        5.1619914944       30.0457507163
  H        10.3987388028        7.1666527139       30.8507014281
  H        11.8797676035        6.1987818334       31.1629919583
  H        10.6202627848        4.9216785869       34.4256356954
  H        10.3512753894        3.9182710812       33.0950593787
  H        11.8383286450        4.5841641196       33.2927783877
  C        11.1366325083        5.2256941751       28.6843539823
  H         9.3412995433        5.1836075768       29.6887064046
  H        10.5145712723        4.1330207971       30.4309671628
  C        10.5088683957        6.0020317856       27.6399908181
  H        12.0559418961        5.7085784943       28.8665592301
  H        11.3505077293        4.2801206818       28.3299112257
  C         9.3655305789        5.2560351287       26.9193499111
  H        11.2993781592        6.1383334671       26.9489469033
  H        10.1331227817        6.9844074197       27.9626741587
  C         8.2300163154        6.0619502292       26.3484015656
  H         9.7992014936        4.6462484291       26.0917048393
  H         9.0180410125        4.4189858724       27.5260459487
  C         7.0326779530        5.2514240822       25.6969792657
  H         7.7841466285        6.7186388286       27.0539687500
  H         8.6769425643        6.8421462351       25.6641059580
  C         6.7326592727        3.9261886241       26.3231291911
  C         7.3989349084        4.6588842197       24.4018872265
  C         5.7708644146        6.1499065663       25.6686467426
  C         6.8987662451        2.8473896061       25.5160324509
  C         6.3390066850        3.5218929537       27.6483581286
  C         7.3089680808        3.3186116785       24.2600199966
  C         7.8863072494        5.2636102296       23.1988555236
  H         5.9767134401        7.1034962408       25.2065336131
  H         5.5506404162        6.2320737830       26.6684478870
  C         4.5255261846        5.4733709127       24.9678543149
  S         6.6314145134        1.3219053644       26.2503545472
  C         6.2186601124        2.1336555941       27.7766434665
  H         6.2251612659        4.2291091656       28.4395965898
  C         7.6950283959        2.7100656473       23.1206548986
  H         8.0714134040        6.2806663542       23.2133333033
  C         8.2030937849        4.6430476173       22.0293674779
  H         4.7313540724        5.1878926369       23.9264072834
  H         4.2772344773        4.5005765882       25.4419248519
  C         3.2444285460        6.2587049145       25.1362395987
  C         5.7242974535        1.3942869273       28.9546670598
  C         8.1330559007        3.3002990406       21.9374476387
  H         7.6491163032        1.6822592955       23.1044517042
  C         8.7152765342        5.0531871541       20.8066961860
  H         2.5108825931        5.9528653512       24.4324402700
  H         3.3895232139        7.3230991532       24.7957463893
  C         2.8195353658        6.3625507031       26.6444741386
  C         5.7224451474        0.0222322199       29.1904630303
  C         5.2518710890        2.2377323180       30.0801683741
  C         8.6139900352        2.6194509922       20.6800028937
  C         8.9873792732        3.9267172423       20.0463810156
  S         9.2255763936        6.5461321268       20.1137973868
  H         2.0486762471        7.1739848831       26.6948212932
  H         3.5868526097        6.8160698907       27.2243757007
  C         2.1423700201        5.0185332181       27.0310106366
  N         6.2728098611       -0.8373192761       28.2855056517
  C         5.3798004399       -0.5600600359       30.3890890505
  C         4.9325705714        1.6574272780       31.3304802312
  H         5.0984783773        3.2847497304       29.9457169752
  C         7.5512654951        1.8369749338       19.9257259885
  C         9.8115512057        1.7570694626       20.8896155698
  C         9.5203141456        4.2965585359       18.8189353031
  C         9.5822999623        5.6380140393       18.6541808172
  H         1.7365759966        4.4494660872       26.2255143387
  H         2.8120810518        4.4129247056       27.5562567721
  C         1.0867473715        5.3134009683       28.1513919413
  S         6.2214132752       -2.3502362165       28.9123794551
  N         5.5916256047       -1.9832789631       30.3854634277
  C         5.0827229201        0.1974132910       31.5313088992
  H         4.5103324504        2.3351118198       32.0924098644
  H         7.0117416956        1.1536381583       20.6552355983
  H         8.0066130165        1.3978184781       19.0108155923
  C         6.4565266422        2.7144579909       19.3432426580
  H        10.1498218443        1.2175912584       20.0092254061
  H         9.6282242096        0.9879454714       21.6220200766
  C        11.0638577321        2.4941573499       21.3149787302
  H         9.8174264945        3.5988839822       17.9901159874
  C         9.8314986103        6.3351755984       17.3043240842
  H         0.6288409513        4.3640758645       28.4108982767
  H         0.2975055489        5.9698839312       27.8441150417
  C         1.5988785216        6.0603939111       29.3473346977
  C         4.9446385623       -0.5279375935       32.7881333570
  H         6.8067704868        3.5099283838       18.7414850292
  H         6.0260475057        3.2317769861       20.2439994175
  C         5.4660798255        1.8304446878       18.5798970265
  H        10.8524163554        3.1589546331       22.1658744856
  H        11.3365123783        3.1404978094       20.4414269206
  C        12.2500857127        1.5544031476       21.5931963286
  C        10.0209374045        7.7646894163       17.1447482077
  C        10.0079620055        5.4717250472       16.1042637152
  H         1.6011591747        7.1350358129       29.2477377917
  H         0.8668113065        5.8174214895       30.0740532870
  C         2.9720351921        5.5921208982       29.9477482984
  H         5.1191748907       -1.5249092115       32.7041956844
  C         4.7301899846       -0.1354253794       34.1168208905
  H         4.8725952572        1.3801006667       19.3348517697
  H         5.9024768158        1.0948638423       17.8490873306
  C         4.6731770956        2.7093623551       17.6782295639
  H        11.8660969743        0.9070741954       22.3816998220
  H        12.5121253701        0.8258693201       20.8937214855
  C        13.3638628574        2.3808476425       22.1775743966
  N         9.9206520884        8.7257115905       18.1703325190
  C        10.5187925642        8.2832245537       15.9743625631
  C        10.4769707629        6.0612527836       14.9339537654
  H         9.6646047819        4.4076051973       16.0983858485
  H         3.0703726221        5.9490073481       30.9813095345
  H         3.0423404762        4.4443714513       30.0054235629
  H         3.8391173096        6.0238716451       29.3788232740
  S         4.4661478329        1.5090028463       34.6947553688
  C         4.6431088882       -1.2082296704       35.1203419692
  H         4.7427746939        3.7626624390       17.9014758319
  H         5.1375256928        2.7567804930       16.6871001170
  C         3.1629162327        2.3906400621       17.5827212413
  H        12.8565469746        2.8334218591       23.0659538752
  H        13.5589106701        3.1915248921       21.4269266266
  C        14.7019261807        1.7045477838       22.5637572214
  S        10.2145211582       10.1064123655       17.4952821601
  N        10.7166034262        9.6749482924       16.0699148270
  C        10.7738583723        7.5242778235       14.8208459266
  H        10.5306645280        5.4069276680       14.1037083929
  C         4.2764360971        0.6827512137       36.2744341501
  N         4.3993291991       -0.6747778521       36.3000524083
  O         4.7272047923       -2.4213862873       34.8443653539
  H         2.6832376861        3.1584267572       16.9057746465
  H         2.7122763740        2.4580139745       18.5294483104
  C         2.8884703787        0.9807894138       17.0384957385
  H        14.6599387716        1.0485415505       23.3641419288
  H        14.9800911093        1.1177230190       21.7098300819
  C        15.7718239804        2.8040894544       22.7657349677
  C        11.0940367283        8.2111222260       13.6459262827
  S         3.9340208200        1.4617234115       37.7530808188
  C         4.3136312647       -1.4450999302       37.4988590548
  H         2.3028640062        1.2674768764       16.1470718116
  H         3.8665191856        0.4644159508       16.6843194830
  C         2.0258051607        0.1754025987       18.0026346796
  H        15.4935463706        3.4322965685       23.6737413399
  H        15.7780954269        3.4091876137       21.8644237437
  C        17.1732572342        2.2428177215       22.8769076860
  H        10.9396978975        9.2703407230       13.6113052832
  C        11.7312574711        7.8340671660       12.5120722291
  H         3.6690960968       -1.0661424673       38.2502920822
  H         3.9174613198       -2.4270032789       37.3724241248
  C         5.7493626469       -1.5407485737       38.1071367705
  H         1.0378063735        0.5883002592       17.8038589641
  H         2.3238989978        0.4559412458       19.0170623205
  C         2.2394440667       -1.3456113784       17.9024178568
  H        17.2737430963        1.3340947406       22.3107925330
  H        17.8472229442        2.9467547265       22.5129124207
  C        17.4821811550        1.8565716745       24.3336153731
  S        12.2461682953        6.1967397067       12.2153877752
  C        11.9316984633        8.7250819039       11.3442627047
  H         5.8706246744       -0.7815055943       38.9319980589
  H         5.9483736214       -2.5653524116       38.4706251525
  H         6.5937852675       -1.3661672816       37.3961924164
  H         2.9357192438       -1.8116179005       18.6408241106
  H         2.6426333183       -1.5959350712       16.9066771504
  H         1.3280436941       -1.8114161655       18.2148402578
  H        16.7831915739        1.0099258188       24.6008960669
  H        17.1119612596        2.6874370086       24.9811615254
  H        18.4915999621        1.5269856735       24.4397785005
  C        12.5617652184        6.7419723213       10.5427497664
  N        12.4735141900        8.0617270576       10.3103663928
  O        11.6262054214        9.9283112532       11.3386726118
  S        13.5370289939        5.8327612197        9.3343902279
  C        12.6725400547        8.8455974856        9.0693887600
  H        12.8071630978        9.8611456693        9.3317580829
  H        13.5115205667        8.3059839736        8.5011220606
  C        11.3670893881        8.9142078360        8.3093935158
  H        10.5800946218        9.2529871067        8.9202320598
  H        11.2824275787        9.6921891772        7.5403240571
  H        11.0153083145        7.9855996742        7.8762320720
  H         2.8107574846        3.4301621782       12.5504490326
  C         2.6687348274        2.3257420432       12.4317410977
  H         1.7290913728        2.0850898325       12.8726767458
  C         2.6489256218        1.9992675479       10.8988868225
  C         3.6452740412        1.6919266478       13.3541063522
  C         3.8332627000        2.4382217458       10.1331988798
  H         1.8629205872        2.5998745241       10.5191091538
  H         2.4564786322        0.9024473105       10.7600960933
  H         4.0148312994        2.3505384066       14.1850298111
  H         4.5440535203        1.3555914699       12.8696472477
  H         3.1207900847        0.7904921351       13.6464294349
  C         4.6579042883        1.1960589458        9.7088449064
  H         3.5615014691        2.9818606209        9.1743679165
  H         4.6419132196        2.9824475434       10.7292405752
  C         5.5378434965        1.4126418418        8.4491322758
  H         3.9481659941        0.3564923771        9.5110215536
  H         5.4007031895        1.0529283752       10.5098410250
  C         6.7131870252        2.3478715421        8.7557378290
  H         4.9438921019        1.9253752739        7.7633692115
  H         5.9301123727        0.4864014142        7.9735599783
  C         7.9277864724        1.6972733767        9.2871304766
  H         6.9525876939        2.8216768927        7.7856196602
  H         6.4294147515        3.1981759042        9.3015466327
  C         9.1731528000        2.6123349062        9.4702972291
  H         8.2405046061        0.9834887879        8.4807546328
  H         7.8335862166        1.1003946702       10.1832789706
  C         8.8664159676        3.9676297207       10.1314927464
  C         9.6356177434        3.3088202286        8.2004013229
  C        10.2813147574        1.9127297638       10.1857046292
  C         9.0793922557        5.0952415200        9.2846492609
  C         8.3666162116        4.3631470730       11.3678791282
  C         9.6026663575        4.6640702581        8.0600721044
  C        10.0170984112        2.7611728416        6.9965955306
  H         9.9223830940        1.3694613883       11.0410483946
  H        10.6969784974        1.2047460607        9.4237035566
  C        11.4270066100        2.7396485593       10.6385604151
  S         8.6360500053        6.5740397308        9.9341500991
  C         8.2999136526        5.6750034133       11.3934158520
  H         8.1998306576        3.7424351435       12.2180831813
  C        10.0349538405        5.3608615328        6.9778886584
  H        10.1271076159        1.6958874817        6.9671555365
  C        10.4498847083        3.4198573422        5.9052846051
  H        11.1783812941        3.7234110878       10.9579599203
  H        11.9314356523        2.8516268084        9.7006906626
  C        12.2826567217        1.9731686132       11.6360603731
  C         7.8665523560        6.4348875155       12.6417614118
  C        10.4310723294        4.7834660561        5.7894428876
  H         9.9147271153        6.3838207554        7.0418684788
  C        10.8560008392        3.0104217930        4.6782565293
  H        13.2858173895        2.5158633830       11.5905275269
  H        12.4239746468        0.9542706574       11.4324722417
  C        11.7433692701        2.1201460912       12.9999379026
  C         7.7987306531        7.8454839801       12.8325115157
  C         7.2946276533        5.6811086562       13.8299077740
  C        10.9483284185        5.4420300000        4.5776323490
  C        11.1936467345        4.0862573312        3.8522932250
  S        10.9965825137        1.4618031313        3.9373230212
  H        11.2852057460        3.0630885230       13.2128064872
  H        11.0248216675        1.3794256047       13.1831639250
  C        12.8155790811        1.9250477221       14.0619969564
  N         8.0791046501        8.8307239950       11.8910329003
  C         7.4900223094        8.4382254053       14.0830260058
  C         6.8877747624        6.3317759204       15.0403501956
  H         7.1304230918        4.6136970072       13.7396588652
  C        12.1661473845        6.2885937184        4.9299342624
  C         9.8317412948        6.2200468352        3.9664992965
  C        11.5807479254        3.6574067838        2.5722242816
  C        11.5220107646        2.2778757464        2.4644836383
  H        13.7962394709        2.4031456981       13.8215708644
  H        13.0183159559        0.8367709240       14.1556657124
  C        12.4217937419        2.2970118494       15.4337178029
  S         7.9766954905       10.3354595919       12.5977016822
  N         7.6336718763        9.8249574954       14.0864854109
  C         7.0182031190        7.8010861279       15.2536389737
  H         6.6061516393        5.8339322187       15.9070300668
  H        11.9444940509        7.3143999212        5.3783855472
  H        12.5678753908        6.5295691198        3.9609344286
  C        13.3061107091        5.6482242502        5.7495291336
  H         9.4354788602        7.0336390765        4.5725515927
  H        10.1614226358        6.7383616888        3.0798142068
  C         8.5672053036        5.3868195645        3.6475772933
  H        11.7661659315        4.3495598956        1.8107058420
  C        11.8105047940        1.4821956099        1.1303848400
  H        12.0873644211        3.3669765820       15.4321082673
  H        11.5531567310        1.6979665197       15.7408924483
  C        13.4432457337        2.2603295797       16.5960033241
  C         6.7940581738        8.5163047452       16.5111507487
  H        12.9118871664        5.4224464892        6.7047919112
  H        13.5589678896        4.6844938518        5.2313869474
  C        14.5509513783        6.5304553407        5.7022925313
  H         8.2427191813        5.0349902641        4.6114426528
  H         8.7916628450        4.4936859089        3.0286399354
  C         7.4826200270        6.1525270092        2.9280054594
  C        11.8505914720        0.0796166209        1.0069588431
  C        12.0546628244        2.1982492756       -0.1447552555
  H        14.2116130364        2.9778434760       16.3551549281
  H        13.9461040150        1.3561502248       16.6612057003
  C        12.7949668556        2.6033517637       17.9296564321
  H         6.7182809676        9.5887253300       16.3817207059
  C         6.4883861617        8.0770554288       17.7839342012
  H        14.4064362107        7.4583553123        6.3339606099
  H        14.6932314617        6.7852688419        4.6428428012
  C        15.7180608497        5.6805723575        6.3557802492
  H         7.0158219913        6.8494699805        3.5900856936
  H         7.9483362602        6.6754939784        2.0287980182
  C         6.4705260512        5.1982586208        2.2983777528
  N        11.5356675726       -0.8401011181        1.9611747778
  C        12.2173394483       -0.5771328706       -0.1805726554
  C        12.2863924897        1.5356065974       -1.4204088280
  H        12.0745914072        3.2660630067       -0.1278129744
  H        11.9953259125        1.9107645226       18.0965302982
  H        12.2993314574        3.6345829499       17.9903341665
  H        13.4225503524        2.4265126993       18.8222606309
  S         6.2584304577        6.4143153098       18.2227203256
  C         6.2234453768        9.1045196230       18.7637281984
  H        15.2644228845        5.1447492247        7.1928556026
  H        16.0654178026        4.8998906037        5.6891203644
  C        16.9903046609        6.4287488221        6.7899777735
  H         5.7759858795        4.9326427867        3.1439530297
  H         6.8371013877        4.2015626775        2.0022935542
  C         5.5256007803        5.7246177316        1.2283230842
  S        11.5784208351       -2.3572689926        1.3025402890
  N        12.3217749244       -1.9421185998       -0.0774045425
  C        12.4736147300        0.0301820326       -1.4282681839
  H        12.3949803005        2.1061543805       -2.3065571264
  C         5.9350727413        7.1074218506       19.8516232776
  N         5.9696646684        8.4810250018       19.9268934159
  O         6.2132834228       10.3102183673       18.5329492398
  H        17.3377569076        6.9105815571        5.8643878173
  H        16.8022119056        7.2370059036        7.5055245810
  C        18.0362281120        5.4336361504        7.3783476353
  H         6.0505450475        6.0241958524        0.3424838855
  H         4.9461806885        4.8563271443        0.8798004257
  C         4.5529447184        6.7890886000        1.6195965825
  C        12.7454427006       -0.7308666029       -2.6033715761
  S         5.3166226527        6.2244517773       21.2346316390
  C         5.8939722241        9.1928591009       21.2105390931
  H        17.6790697719        5.3585839918        8.4363937375
  H        18.0239512753        4.4555149788        6.8875062605
  C        19.3943807863        6.1173214786        7.2691959731
  H         4.3751974098        6.7754671521        2.6740817759
  H         3.5053220175        6.4100548218        1.3654471271
  C         4.8289959588        8.2233235632        1.0626854434
  H        12.5625207218       -1.7820141848       -2.6120543626
  C        13.0249230694       -0.3965959064       -3.8565505695
  H         5.0466972094        8.7668292055       21.8225194191
  H         5.7144977348       10.2231155142       20.9947040943
  C         7.1326852566        9.0692779174       22.0440225208
  H        20.0043644523        5.6219654930        8.0439668507
  H        19.3332563924        7.1745458834        7.4570239715
  C        19.9289100312        5.8104979547        5.8393991692
  H         5.8201293244        8.5046399653        1.2542722390
  H         4.7592370283        8.3566173732        0.0165666886
  C         3.9649730306        9.1221512291        1.8302797526
  S        13.2987835005        1.1956259716       -4.5269636591
  C        13.0387864132       -1.4183418843       -4.9063745613
  H         8.1559052803        8.8675495900       21.5768932684
  H         7.0100797489        8.4512517074       22.9613279504
  H         7.2512987418       10.1412545437       22.2868821485
  H        19.0978703331        5.8243623890        5.1280003066
  H        20.6111793001        6.6095174750        5.4858536303
  H        20.3231081202        4.7993813196        5.7428713108
  H         3.5245038485        8.7050059986        2.8031993367
  H         4.4916202469        9.9798489471        2.1672859789
  H         3.1821107046        9.4418447000        1.1383480910
  C        13.5923505439        0.4168988891       -6.0787699736
  N        13.4484018584       -0.8994570452       -6.0733203068
  O        12.7736823621       -2.5807258767       -4.7696672408
  S        14.0838149406        1.2506086185       -7.5870495721
  C        13.5133570662       -1.6520504182       -7.3108120261
  H        13.6028139444       -2.7700011972       -7.1041315988
  H        14.4719270935       -1.3417820412       -7.8082080801
  C        12.3134094858       -1.4238376350       -8.2760250093
  H        12.1606094881       -2.2919827861       -8.9027767870
  H        12.2566333826       -0.5544559113       -8.9369196670
  H        11.3660398655       -1.3132763248       -7.7472352323
