352
 i =    42000, time =    21000.000, E =       100.4963303521
  H        10.5029856688        4.8200557713       31.9006391429
  C        10.3842779783        5.9128371310       32.0251243586
  H         9.3623236163        6.2546439919       31.5476493947
  C        11.4477878665        6.5141045971       31.0381985728
  C        10.6674570015        6.2193387581       33.5516547662
  C        11.6034949541        5.7729605008       29.6591641174
  H        11.1905154373        7.5512115818       30.7908451005
  H        12.3151075668        6.6532545561       31.6681319612
  H        11.2753879641        7.0567568587       33.8719078511
  H         9.7278287596        6.4003336571       34.0773255709
  H        11.1940010182        5.2985586065       33.8107163758
  C        10.3262409826        5.9928932895       28.7253683452
  H        11.6930996157        4.6727410382       29.7643032698
  H        12.5525332124        6.0528203864       29.2629211593
  C        10.6758324914        5.8011606719       27.2980822274
  H         9.5771621975        5.3155820594       28.9676260230
  H         9.8463008046        6.9432584118       29.0824544334
  C         9.5631442761        4.9975118011       26.5309542000
  H        11.5975688607        5.2114710539       27.3382237767
  H        10.9517394166        6.6521598739       26.7340746764
  C         8.4204942533        5.8314342800       26.0380335774
  H         9.9508001236        4.4944007380       25.7105949598
  H         9.2802585223        4.1970517965       27.1604235006
  C         7.2504320765        5.1063573352       25.3745974023
  H         8.0413964812        6.5600236938       26.8104859392
  H         8.8201458225        6.4874836596       25.2862603377
  C         6.9525478124        3.7917269410       26.0437437993
  C         7.6855948743        4.4680576045       24.0960845516
  C         6.0649338118        6.0970057808       25.4008204711
  C         7.1990164293        2.6618591808       25.3080480740
  C         6.3810851609        3.4290226387       27.3122413135
  C         7.6937028459        3.1009505691       24.0488375956
  C         8.2804472008        5.1005603400       22.9731581342
  H         6.2640902887        7.0799526670       24.8548446147
  H         5.9760580742        6.4364013663       26.3969042205
  C         4.7821742715        5.4525106756       24.8716678969
  S         6.7036190578        1.1241675452       26.0627224516
  C         6.2270181461        2.0682751567       27.4679671853
  H         6.1983317747        4.1899894414       28.0620985695
  C         8.0433401788        2.4396410370       22.9302507670
  H         8.3651095208        6.1879709704       22.9449029544
  C         8.5799208797        4.3783225064       21.8202534299
  H         4.9615629400        5.3004694517       23.8237673918
  H         4.5290931959        4.4908316019       25.2930529711
  C         3.6190936990        6.3971939621       25.0207276423
  C         5.7874664660        1.4196370488       28.7367888111
  C         8.4575727292        3.0246432255       21.7242862729
  H         7.9969988000        1.3549303464       22.9233107612
  C         8.9394898013        4.8208038932       20.5667391193
  H         2.8009116924        5.9988028020       24.3295605602
  H         3.8460519041        7.4591652922       24.6386554324
  C         2.8428351688        6.4542627485       26.3523414949
  C         5.8248075508        0.0357655962       28.9800263548
  C         5.3822058214        2.2131886103       29.8680500253
  C         8.8791034185        2.3568574423       20.3690063624
  C         9.1801079513        3.7444474883       19.7701388309
  S         9.2597868321        6.3836981261       19.8591374742
  H         1.9889101646        7.1130016625       26.1525438227
  H         3.4973530989        7.0496873820       26.9816164148
  C         2.4065309113        5.1244209710       26.8873706190
  N         6.2524097699       -0.8864498490       28.0114937376
  C         5.5938474193       -0.6117752687       30.1502855888
  C         5.0883924399        1.6054847812       31.1264084454
  H         5.2189043415        3.3203370873       29.8082168585
  C         7.7209080493        1.6085871239       19.6724767820
  C        10.2802655118        1.5980186878       20.4084763929
  C         9.6077369368        4.2061418984       18.5573990958
  C         9.6507898019        5.6025153438       18.3976788759
  H         1.8295843915        4.6279114738       26.0924095717
  H         3.2356158360        4.4943122431       27.3054247706
  C         1.3919288046        5.2568152294       28.0764413322
  S         6.2119961913       -2.3529700477       28.7697816573
  N         5.8316571787       -1.9508591856       30.2537819229
  C         5.1727370584        0.1285884032       31.2382032253
  H         4.6476807252        2.1990379110       31.8925663451
  H         7.2632616885        0.8897873118       20.3698221782
  H         8.0223287492        0.9409825277       18.8311148462
  C         6.5075731671        2.4607609010       19.3110684240
  H        10.5801459132        1.2797010411       19.4118522570
  H        10.1579852988        0.6747353655       20.9727707384
  C        11.4325086089        2.2996610617       21.0312623214
  H         9.6699069619        3.5067180027       17.6781327645
  C        10.0548570636        6.3481636768       17.1800334365
  H         0.7098006278        4.4379269435       28.1238246553
  H         0.8485638485        6.2141714472       27.8724302618
  C         2.1606159007        5.3835560179       29.4319688743
  C         5.0094756179       -0.5736783883       32.4864052660
  H         6.8454373916        3.3400973428       18.7442761391
  H         5.9285854983        2.8244424554       20.1691099213
  C         5.6757754317        1.6878608676       18.3383660311
  H        11.1040762459        2.7241076927       21.9420833791
  H        11.8210539925        3.0487046322       20.4114167152
  C        12.6138482643        1.4363735310       21.3831484690
  C         9.9225259400        7.7112049897       17.0087408177
  C        10.2785235032        5.5558776728       15.9775519563
  H         2.8543765775        4.6038390361       29.5644397666
  H         2.7197731653        6.3111307914       29.4183822848
  C         1.1894554193        5.4334236467       30.6678811777
  H         5.3364351413       -1.6004485594       32.4472910293
  C         4.7098762506       -0.1674102690       33.8125369579
  H         5.7947613723        0.6167263181       18.5176262327
  H         6.0976933941        2.0393496948       17.3251236179
  C         4.2521239543        2.2106393834       18.2132618179
  H        12.3657548865        0.6386191264       22.1084666504
  H        12.9340956164        1.0485219488       20.4677777570
  C        13.7103137456        2.3509318243       21.9550768515
  N         9.7762334537        8.6365097109       18.0824826320
  C        10.1834247505        8.3332563830       15.8157747600
  C        10.6226380326        6.1783408253       14.7641463217
  H        10.3014895241        4.4773028988       16.0251211511
  H         1.8340062653        5.5048916357       31.6191797922
  H         0.6089505653        6.3043076541       30.5036916327
  H         0.5617604817        4.5112303359       30.7011808467
  S         4.4318530748        1.4336627259       34.2682614400
  C         4.8642269442       -1.1797042295       34.8290341280
  H         4.0800803548        3.0605288289       18.7956183560
  H         3.9822662789        2.4738579834       17.1738802465
  C         3.2749029219        1.0332668976       18.6117026522
  H        13.4185472813        3.0269006138       22.7037426611
  H        13.9928308809        3.0051803411       21.1406649285
  C        14.9251050953        1.5226788112       22.2969848662
  S         9.6209523057       10.1003952194       17.4187364171
  N        10.0463827312        9.7137641503       15.9179261523
  C        10.6171936247        7.6855046745       14.6421935076
  H        10.9514337780        5.5466499195       13.9650240312
  C         4.5089208333        0.6642874694       35.9194979557
  N         4.5460906612       -0.6686287538       36.0207975620
  O         5.0682469584       -2.3421417501       34.7093782922
  H         2.2383486565        1.4028234584       18.7869389648
  H         3.6071190668        0.5476729853       19.4864811120
  C         3.2216850472        0.0888774755       17.5045476256
  H        14.6253212267        0.6039390253       22.7514816695
  H        15.4732472961        1.3180504672       21.3937919405
  C        15.8374272517        2.2832297211       23.1993926045
  C        10.7980824904        8.5228643371       13.4648657561
  S         4.0061143486        1.4738819206       37.3795007431
  C         4.5873626999       -1.4655703246       37.2234308948
  H         2.9296168381        0.4987256052       16.5469379719
  H         4.1844548013       -0.2062603076       17.4148529278
  C         2.4535746576       -1.1696693140       17.9725099582
  H        15.2114508715        2.7355667145       23.9620765004
  H        16.2196889250        3.0475649443       22.5926451770
  C        16.9439573577        1.4014851464       23.8003539576
  H        10.4408158708        9.5313707839       13.4108304482
  C        11.2375668527        8.1645488091       12.2005480802
  H         3.9427338412       -1.0407473386       37.8888372166
  H         4.3138397329       -2.4326657442       36.9927690362
  C         5.9578214325       -1.5040898333       37.7779991677
  H         1.5420535250       -0.8164401774       18.4113992484
  H         2.9559783057       -1.5206055595       18.8751911417
  C         2.1893281345       -2.2859636660       16.9387891320
  H        17.5016303531        1.8888670872       24.6436714818
  H        16.4298313736        0.5990384131       24.2356113874
  C        17.9591381819        1.0205036073       22.8095113519
  S        11.8075595585        6.5986010960       11.7860420012
  C        11.3150471444        9.1657032538       11.1065129774
  H         6.1488350414       -0.7818089733       38.5754761786
  H         6.1517471849       -2.4728239235       38.2168706405
  H         6.7686377321       -1.4593312782       37.0462391086
  H         1.2902287838       -2.7049829707       17.4265363983
  H         2.9752893859       -2.9555024447       16.7973434352
  H         1.9008306834       -1.8248650141       15.9843942651
  H        18.7665996117        0.4557352232       23.3539750566
  H        18.4829483877        1.8967817583       22.3893961584
  H        17.5573763362        0.4365135507       22.0386248157
  C        12.1968834658        7.2674626759       10.2129316807
  N        11.9538985948        8.6332514921       10.0769783732
  O        11.0976946253       10.4076305047       11.2960996868
  S        12.7899791069        6.3879266692        8.7975930589
  C        12.0945685276        9.4416988883        8.8769373124
  H        12.1740372725       10.4997733414        9.1873661641
  H        12.9812702936        9.2472525352        8.2385788435
  C        10.8760817816        9.3981541146        7.9723403330
  H        10.0184841179        9.0691037787        8.4425254196
  H        10.7267714220       10.4338041271        7.6454841397
  H        11.1397351300        8.8680416823        7.0166859295
  H         4.8572632831        1.6539159694       12.2670979023
  C         4.1058091266        2.4344618277       12.4765772479
  H         4.6531081557        3.3487144151       12.4202726916
  C         3.1052648422        2.3170313161       11.4128507584
  C         3.7048774687        2.2167886313       13.8614960382
  C         3.8141309141        2.5321149368       10.0887516732
  H         2.2968497498        3.0481137459       11.5154904697
  H         2.5476264663        1.3402810565       11.4836902173
  H         3.0781530425        3.0246941323       14.1214503241
  H         4.5143311491        2.2671387128       14.6718456395
  H         3.1148247822        1.3076976425       14.0344920992
  C         4.4911205139        1.3007838683        9.3654213345
  H         3.1820646641        3.0315072181        9.4024379521
  H         4.5517439461        3.3579560092       10.3189520513
  C         5.2003342565        1.8008149932        8.1328196768
  H         3.6760678771        0.6272826518        8.9984480917
  H         5.1530030998        0.8521621651       10.0651457704
  C         6.3759620536        2.6871744438        8.3513958755
  H         4.5302792975        2.2874074546        7.4600696865
  H         5.4610679201        0.9548725210        7.5714147486
  C         7.6120168627        1.9847844019        8.9997237736
  H         6.6347993700        2.9978811495        7.4129795960
  H         6.1058439342        3.5286462155        8.8924088991
  C         8.9172632412        2.8062591456        9.0705602055
  H         7.8118979928        1.1638757522        8.4228888954
  H         7.3374940091        1.6302398406       10.0196071454
  C         8.6559355705        4.1464124718        9.7630297125
  C         9.2803472067        3.4563328398        7.7422442103
  C        10.0056848092        1.9750938348        9.6472877048
  C         8.8642224671        5.2155921484        8.9120037699
  C         8.1492126604        4.5731445802       10.9958749211
  C         9.2104731540        4.8262072268        7.6586729251
  C         9.6734963187        2.8051716718        6.5462863767
  H         9.6705166018        1.7252482343       10.6531961895
  H        10.1637979933        1.1155012810        8.9492842909
  C        11.2840729478        2.7885711741        9.8246183093
  S         8.6431052729        6.7068959268        9.7408475744
  C         8.0395599739        5.8850159216       11.1104164160
  H         7.8869424083        3.8476847054       11.7305046593
  C         9.6143085702        5.4085160463        6.4981870998
  H         9.7645013143        1.7506559117        6.5089130213
  C        10.1131655007        3.4397449959        5.4026127765
  H        11.2017077253        3.8397284458       10.1260510858
  H        11.9068339008        2.8441956775        8.8790837410
  C        12.0889442077        2.0679786336       10.8501996555
  C         7.4821815939        6.4794586219       12.3427262028
  C        10.1580630523        4.7719258123        5.3518026063
  H         9.5479642273        6.4284734760        6.4470337986
  C        10.5521923539        2.9758347053        4.1405892932
  H        13.1304804648        2.2665915112       10.7440775837
  H        11.9151428216        0.9635012459       10.7814275254
  C        11.7273562765        2.5047272466       12.2213229794
  C         7.5232972151        7.8283323083       12.6456811960
  C         7.0336719702        5.6814707480       13.5364928222
  C        10.5803255144        5.4338285721        4.1180588173
  C        10.8936271949        4.0834668170        3.3600938355
  S        10.9509448312        1.4650539510        3.4656758247
  H        12.1275055575        3.5421808731       12.3996088453
  H        10.6260692861        2.5005764150       12.3395049426
  C        12.2178899178        1.5701102557       13.3204553929
  N         7.8078738479        8.7850657487       11.6696416790
  C         7.2910066530        8.3716802258       13.8783738892
  C         6.7577257311        6.1673029309       14.7804065589
  H         6.9940225444        4.6762593647       13.3225515603
  C        11.9242111033        6.1740463744        4.3222680778
  C         9.5498100690        6.2396432249        3.3323142010
  C        11.4072180524        3.6030576722        2.0881700863
  C        11.4309872300        2.2671216927        1.9767495545
  H        13.2052607662        1.1459379724       13.0528513854
  H        11.5689581911        0.7076258558       13.2933177886
  C        12.3210468141        2.3357501358       14.6232450486
  S         7.8784098555       10.2138421259       12.4288604078
  N         7.4006384687        9.7734111997       13.8425361218
  C         6.8753432948        7.5996856141       14.9918116090
  H         6.5603102074        5.3823106157       15.5223903374
  H        11.8584870733        7.0082109384        4.9971061410
  H        12.2854620118        6.5674623921        3.4242456967
  C        13.0651379846        5.2638632641        4.8241281460
  H         9.0800512150        6.8335400534        4.1250627916
  H        10.0889553017        6.8795494661        2.6824009378
  C         8.4467448536        5.4295356014        2.6154797819
  H        11.5313887716        4.3063240694        1.2851662941
  C        11.7149288880        1.4688124299        0.7375420499
  H        13.0952474984        3.1029700400       14.4236400004
  H        11.4254532240        2.9916150559       14.6330091540
  C        12.4613504317        1.6045471496       15.9161035133
  C         6.7474557186        8.2226954583       16.2775983267
  H        12.7969833306        4.5742300424        5.5835832474
  H        13.3381525389        4.6628012822        3.9539929308
  C        14.3080478242        6.1640351304        5.0742285209
  H         8.1422899466        4.5390694727        3.1824769557
  H         8.9862809376        4.9927161316        1.7862500326
  C         7.2631651426        6.3078309736        2.2221228916
  C        11.7521048866        0.0436499336        0.5346487661
  C        12.0202323276        2.2707765486       -0.5043958135
  H        13.1593092349        0.7920701424       15.8388899085
  H        11.5084513257        1.0967516984       16.1442436152
  C        12.8550299680        2.7312281278       16.9321244982
  H         7.1062259765        9.3250205626       16.2874397085
  C         6.4922420357        7.8411884754       17.5666748880
  H        14.0426827927        6.8895420458        5.8329898350
  H        14.7781695853        6.6527016702        4.1393167658
  C        15.4647826361        5.3096385984        5.5838912860
  H         6.9736150013        6.9050688650        3.0947406847
  H         7.7214471601        7.0118041921        1.4960642290
  C         6.1403478797        5.4840129512        1.5209893633
  N        11.3381952717       -0.8697067185        1.4852019117
  C        12.0755909770       -0.5426458813       -0.7011750710
  C        12.3547083130        1.6614930791       -1.6822397185
  H        11.9938532510        3.3837313050       -0.4565785022
  H        12.0662971629        3.5048429826       16.9898693144
  H        13.8857458910        3.1674998927       16.6155418356
  H        13.0862222971        2.3471824430       17.9494180682
  S         6.2210005877        6.2773601304       18.1303552523
  C         6.5255502895        8.8393690367       18.6868380368
  H        15.1336674279        4.2742846533        5.8347442259
  H        16.3047103542        5.2633238803        4.8737476102
  C        16.1184966917        5.8450542169        6.8504483215
  H         5.7628756122        4.8180218381        2.2742359457
  H         6.6194718571        4.9974496040        0.6678047413
  C         4.9248950242        6.3768345234        1.1476521448
  S        11.4176358432       -2.3888630526        0.8781128080
  N        11.9575907435       -1.9385822688       -0.6559049733
  C        12.4821784262        0.2127182238       -1.8154594314
  H        12.4132580598        2.1612174183       -2.6033565243
  C         5.8967746691        6.9418984094       19.6485000525
  N         6.1441544000        8.2531617832       19.8322448960
  O         6.5504833822       10.0609845486       18.5853846470
  H        16.2002153460        6.9413436213        6.8189727801
  H        15.4802424761        5.5519956791        7.7118908344
  C        17.4373595626        5.0924187050        7.2253997718
  H         5.1939362164        6.9420533346        0.2140751680
  H         4.0080574568        5.8085234534        0.8614294957
  C         4.3338016086        7.3564924326        2.2384633415
  C        12.8266710831       -0.4499893118       -3.0427396818
  S         5.5633491894        5.9649434481       21.0838328302
  C         6.1267650719        9.0439507066       21.0505915726
  H        17.3629910507        4.8126657433        8.2693811470
  H        17.6030493260        4.0750368693        6.7507596739
  C        18.7747740354        5.9581641645        7.1249556214
  H         4.8185351050        7.2605851474        3.1879433180
  H         3.2912503047        7.0993822122        2.3536467252
  C         4.4925518353        8.8634926742        1.8424875135
  H        12.4355273623       -1.4793936696       -3.0719784051
  C        13.3921974687       -0.0594065498       -4.2271873088
  H         5.6123441357        8.5128181677       21.8444601707
  H         5.5175426441        9.9512086597       21.0753320415
  C         7.5807526262        9.3979215540       21.5096459890
  H        19.6510815658        5.4725527380        7.5216304052
  H        18.6823337598        6.8977350886        7.6638679827
  C        19.2128491888        6.1891445461        5.6406194079
  H         4.4792795181        9.5594903127        2.6511354954
  H         5.5108091563        8.8815966142        1.3659886538
  C         3.4740572550        9.2658104461        0.7886285483
  S        13.9952850975        1.4435314248       -4.6413762720
  C        13.4108413448       -1.0861256604       -5.3401682007
  H         8.2682021411        9.8011481430       20.8228204910
  H         8.0401095688        8.4861656079       21.9257307247
  H         7.5800391589       10.1202537357       22.3327494346
  H        19.0073246832        5.3338956301        5.0529544807
  H        18.8064547700        7.1406622662        5.2191656543
  H        20.2800890851        6.2126977260        5.7632263049
  H         3.8367357866       10.2597950376        0.4871530317
  H         3.3194478600        8.6031154509       -0.0800684822
  H         2.5614450990        9.5548186989        1.2838067684
  C        14.3375945479        0.7366166366       -6.1828434418
  N        14.0098543209       -0.5811792758       -6.4012427508
  O        12.8845748718       -2.2244270324       -5.3471795265
  S        15.2577396982        1.6435738240       -7.3702674078
  C        14.1414785692       -1.3432392487       -7.6201979055
  H        14.6057224693       -2.2846662359       -7.3691748038
  H        14.7506586409       -0.7851335203       -8.3608608242
  C        12.8202052392       -1.5048810673       -8.2925670749
  H        12.0362312219       -1.2040718063       -7.5834185008
  H        12.6790003019       -2.5250246279       -8.5987281568
  H        12.7485318496       -0.9172458059       -9.2148185043
