352
 i =    53500, time =    26750.000, E =       100.2830569837
  H        10.1243844200        4.4089867867       31.5227356173
  C        10.6129323362        5.2519764594       32.0439234373
  H         9.8162873869        5.7548663221       32.5995111565
  C        11.2223078929        6.2168735444       30.9490108459
  C        11.6709019185        4.7626049889       32.9996436487
  C        11.4894015447        5.3709106768       29.7617898745
  H        10.4201016452        6.9942366528       30.7560841749
  H        12.1101255375        6.6572015280       31.3924770964
  H        12.5384325820        4.2328893465       32.6566807243
  H        12.0661176836        5.6390339594       33.4285469618
  H        11.2489123740        4.0831801553       33.7682286285
  C        10.2887462490        5.1142600091       28.8277471754
  H        11.9827224128        4.4411103940       30.0907177545
  H        12.0818184453        5.8233770278       29.1092394605
  C        10.7416383158        5.2399789138       27.3785478914
  H         9.8093119542        4.1365148975       29.0697819224
  H         9.4945814507        5.8214260156       29.0836825446
  C         9.6990186919        4.5968246955       26.5797697184
  H        11.7276200690        4.8165693634       27.2964513858
  H        10.9203812538        6.2675788520       27.1331039643
  C         8.5005278854        5.4234304375       26.1845200537
  H        10.0561768846        4.1706254508       25.6553812548
  H         9.4613193264        3.6733333713       27.1666273036
  C         7.3813323419        4.6912818386       25.3607407144
  H         8.1182551723        5.8183816891       27.1128833460
  H         8.9611605087        6.2430203984       25.5928394561
  C         7.0760108994        3.3352393082       26.0232477355
  C         7.7331520844        4.0178385664       24.0828651991
  C         6.2156858535        5.5930275275       25.2193072826
  C         7.3039741385        2.2365287156       25.2115387370
  C         6.6042597695        2.9350618303       27.3128996825
  C         7.7341729090        2.6582644173       23.9506373150
  C         8.1850034786        4.6570341133       22.9263881633
  H         6.3250621463        6.1445532272       24.2892601979
  H         6.0061921944        6.1320859798       26.1793553127
  C         4.7901132701        4.9898726901       25.0030132558
  S         6.7435135998        0.7702281720       25.8977544754
  C         6.3605033413        1.6065862480       27.3401424505
  H         6.3620799266        3.7144465837       28.0325680030
  C         7.9186083924        2.0772970091       22.7098471427
  H         8.1255145399        5.7032313281       23.0161362371
  C         8.5205078627        4.0695934430       21.7305974579
  H         4.7531594878        4.4519851549       24.0210143348
  H         4.5734699024        4.3125481074       25.8684374760
  C         3.6542488320        5.9684733238       24.8898135865
  C         5.9316009018        0.8941183487       28.5538251463
  C         8.4509546051        2.7267131529       21.5779506997
  H         7.8975709533        0.9297155980       22.6217422552
  C         8.9358480407        4.5328597527       20.4754636475
  H         2.8381742893        5.6123092051       24.2187157832
  H         3.8532376694        6.8757035493       24.3682971281
  C         2.9464422815        6.2692867307       26.1940540817
  C         5.8855842141       -0.5262509155       28.7838937818
  C         5.5763772466        1.7200825468       29.7168950497
  C         8.7817627486        2.0397459762       20.2528026226
  C         9.0758749000        3.4260327730       19.6199229464
  S         9.4583878013        6.0436803421       19.8277935201
  H         2.1400151347        6.9815648960       26.0036766421
  H         3.6688628206        6.6105690948       27.0279745252
  C         2.0893690955        5.1186097754       26.5895950575
  N         5.9921804356       -1.4066693675       27.7536158459
  C         5.5298826000       -1.1264522837       30.0151274445
  C         5.3259588885        1.1155428975       30.9276943060
  H         5.4669585382        2.8771039120       29.6770714136
  C         7.6553276544        1.3084371933       19.6084028891
  C         9.9980714871        1.1467183257       20.2570021685
  C         9.5080311252        3.8734002955       18.3588236892
  C         9.5814699008        5.2301508791       18.2519367115
  H         1.2285605335        5.1779406989       25.9686564135
  H         2.5179573165        4.1783930342       26.2716113168
  C         1.6407550707        5.0463015442       28.0153790908
  S         5.8911287768       -2.9012525437       28.4336517000
  N         5.5316393776       -2.5244621728       30.0169980974
  C         5.2923406171       -0.3523289724       31.1946694201
  H         5.0438076657        1.7952661026       31.7297162003
  H         7.4306860854        0.3745050561       20.1417247597
  H         7.9930427097        1.0527625668       18.5817607439
  C         6.2785990476        1.9779824402       19.6311258331
  H        10.2717810886        0.8469120021       19.2727571271
  H         9.8483372654        0.2279337797       20.7946253959
  C        11.1682166489        1.9125308837       20.9121004472
  H         9.5616197104        3.0764532660       17.6031974410
  C         9.8104892880        6.0299778203       17.0501736646
  H         0.9366347450        4.2139904435       28.1178065099
  H         0.9704611135        5.8721675487       28.2393918467
  C         2.7772254952        4.8327871829       29.0007088759
  C         5.0609877001       -1.0143127051       32.4335584472
  H         6.2775035228        3.0595197184       19.6848941109
  H         5.6909125904        1.5716980474       20.4606964672
  C         5.5982099363        1.5803618859       18.3651005714
  H        10.8597743661        2.3824819490       21.8455888793
  H        11.5114239825        2.7115189382       20.2490992409
  C        12.4661920191        1.0325716027       21.1371721325
  C         9.8852695589        7.4313888939       16.8755470098
  C        10.0744600684        5.2503864594       15.8127430602
  H         3.4954231963        4.0763900717       28.6321546470
  H         3.3915947971        5.7305810776       29.1076134471
  C         2.2991147244        4.6192522930       30.3991379144
  H         5.3059194500       -2.0910250569       32.4475367684
  C         4.7301036607       -0.5691718145       33.7045382415
  H         5.6953621415        0.4735788958       18.3801204317
  H         6.2283224038        1.9154257063       17.5994788098
  C         4.1496021744        1.9746036330       18.1792702481
  H        12.4094844200        0.4308366526       22.0234134389
  H        12.6868818478        0.3773382338       20.3244855344
  C        13.7388268259        1.9080077132       21.3505929169
  N         9.6404003535        8.3668876003       17.9422695414
  C        10.0422950737        8.0508224079       15.7070863171
  C        10.3396638453        5.8576454721       14.5885389819
  H        10.2919659609        4.2175933237       15.8815110627
  H         3.0576085246        4.0942871664       30.9519693117
  H         2.1371116625        5.6066577247       30.9622071244
  H         1.3666863467        4.0924757560       30.4759742992
  S         4.3334598015        1.0396045148       34.0621986233
  C         4.8300250751       -1.4739500234       34.8806725425
  H         3.8500566299        2.9188479635       18.5578171773
  H         4.1976326916        2.0500497298       17.1184703158
  C         3.0661185721        0.9255160986       18.6374713128
  H        13.5750055347        2.6275404954       22.1715532055
  H        13.8281728030        2.5058196898       20.4635888570
  C        15.0115445805        1.1015949629       21.4538761522
  S         9.5492340933        9.8963960313       17.4058497872
  N        10.0024206650        9.4530214069       15.8718672728
  C        10.3175702521        7.3559848612       14.4799892826
  H        10.5706816804        5.3373828561       13.7433255914
  C         4.1251471626        0.5063373763       35.7653096108
  N         4.4462692123       -0.8189105913       35.9840970770
  O         5.1197632354       -2.7055295066       34.8498595438
  H         2.1333311558        1.4174775567       19.0178921393
  H         3.4983018100        0.2102138009       19.2996650976
  C         2.8173786964       -0.0762345165       17.4559908387
  H        15.0406463526        0.2800872356       22.1144314006
  H        15.2624793420        0.6334715453       20.4672693858
  C        16.1673315544        2.0480004277       21.6875544842
  C        10.6464695091        8.2244876104       13.3553028192
  S         3.6307161640        1.5949599597       37.0498576923
  C         4.6033905029       -1.4743705922       37.2666974576
  H         2.5573336163        0.2878595549       16.4434158781
  H         3.7253519884       -0.5992828581       17.4231924725
  C         1.6477795376       -1.0302958678       17.7457850700
  H        15.7712176538        2.8630126384       22.2257302032
  H        16.5994940850        2.4960763738       20.7905713046
  C        17.2503231518        1.5601854048       22.6230820930
  H        10.4319961752        9.3010599392       13.4343933009
  C        11.0195408756        7.9037822176       12.1148317844
  H         3.9498076518       -1.1513387323       38.0483177059
  H         4.1706780512       -2.4570982063       37.1747012366
  C         6.0703080468       -1.6533232444       37.6683673697
  H         0.7769289578       -0.4552222987       17.9258888893
  H         1.7467735767       -1.5538423831       18.6130831237
  C         1.3821115498       -2.0125399570       16.6497947898
  H        17.8742986691        0.7365934410       22.2010382280
  H        17.9835632082        2.2655664898       22.6547993580
  C        16.8102551812        1.2287028837       24.0986302034
  S        11.4805054626        6.3263334314       11.5376357717
  C        11.1803239681        8.9157403356       11.0402127047
  H         6.8182707308       -1.3404184668       37.0244492336
  H         6.3089572095       -1.0526656526       38.5034398004
  H         6.1654901861       -2.7373435395       37.8430018620
  H         0.9055073865       -2.9562851737       16.8558823338
  H         2.3527975168       -2.2392518316       16.1379874672
  H         0.6908265001       -1.5680706472       15.9093951889
  H        17.4431789497        0.6681052834       24.7297740042
  H        15.9704098723        0.6282148920       24.0507954741
  H        16.5724796980        2.2113042668       24.6205519680
  C        11.9994144500        7.1286928676       10.0318786288
  N        11.8342985888        8.4823321623       10.0333435373
  O        10.9218939139       10.1235007012       11.2057831077
  S        13.0312880463        6.5713568962        8.8057266557
  C        12.1599392065        9.3449925160        8.9646744377
  H        12.3934545375       10.4358639178        9.2319580542
  H        13.0934417320        9.1864364179        8.3764052577
  C        10.9580136610        9.4342577716        7.9942120974
  H        11.1441460575        9.0881696818        6.9523840803
  H        10.1021445125        8.8450179522        8.3953305396
  H        10.5250640542       10.4658114139        7.8052122931
  H         4.2188593852        1.2697516499       13.0594546662
  C         3.4263889797        2.0171730699       12.8477957229
  H         3.9996003829        2.8873970413       12.9980466921
  C         2.7000201810        2.0536090684       11.4307692696
  C         2.4872792280        2.2380428530       14.0563730910
  C         3.5566696183        2.4109349462       10.2250049473
  H         1.8047552097        2.6506254410       11.5324376245
  H         2.2781260160        1.1106451369       11.1653466985
  H         2.0941180554        3.3028645073       14.0772708247
  H         3.0823243631        2.2679836769       14.9880026579
  H         1.7392817237        1.4755445507       14.1776537838
  C         4.4692428775        1.2370760632        9.7737508918
  H         2.8877075213        2.7757528368        9.4350726534
  H         4.3029994585        3.2598333394       10.3192503573
  C         5.1447804959        1.5387378636        8.3581759385
  H         3.8934396766        0.3691906340        9.6373891024
  H         5.2415693232        0.9972666023       10.4977248037
  C         6.5519481052        2.2984338261        8.4896046483
  H         4.5516054909        2.1718732093        7.7594245314
  H         5.3194776792        0.6522319773        7.7428743981
  C         7.6798485666        1.5485717951        9.3168537120
  H         7.0756908274        2.4081592952        7.6109777080
  H         6.4698264766        3.3474784612        8.7456099669
  C         8.9710574786        2.3984691735        9.3781059603
  H         7.6798247998        0.4674473807        9.1070474824
  H         7.3834317672        1.5220142859       10.3775138643
  C         8.6396851184        3.7162514745       10.0939108644
  C         9.4081822187        3.0344678713        8.1286566672
  C        10.2385478583        1.6559278278       10.0746385741
  C         8.8629196239        4.8235545343        9.2722793505
  C         8.1130004805        4.0516188246       11.3450657747
  C         9.3740375344        4.4320356568        8.0405136575
  C         9.8077672199        2.4392631367        6.9092617773
  H         9.9984085201        0.9238782460       10.8628691047
  H        10.5114509412        0.9329408144        9.2897586415
  C        11.4544555188        2.5280950059       10.4348025829
  S         8.3461785882        6.2801933927        9.9512915728
  C         7.9366411400        5.4178780060       11.3893422304
  H         7.9910788643        3.3124331656       12.1667165158
  C         9.7429690950        5.1434979773        6.9095505971
  H         9.8208576971        1.4014237196        6.8788659613
  C        10.2202918107        3.1554071932        5.8097735009
  H        11.2473457247        3.4879539980       10.9385683478
  H        12.0023067296        2.8546082222        9.5471848720
  C        12.4142225406        1.8164153665       11.3069261679
  C         7.3816279203        6.1496450503       12.6319981350
  C        10.2298085049        4.5266033108        5.7164750527
  H         9.8972907499        6.1624430236        7.0070622167
  C        10.7309001728        2.7405631469        4.6145098382
  H        13.4089456475        1.9916116105       11.0659712394
  H        12.2998821308        0.6958591524       11.2477344305
  C        12.1875152641        2.2537014452       12.7559506082
  C         7.2819897076        7.5581851081       12.8676112778
  C         7.0480120903        5.3320319976       13.8489829539
  C        10.5969637872        5.1928973996        4.4111410093
  C        10.8714643591        3.8356807330        3.7498369931
  S        11.0463350091        1.2019190544        3.9031885144
  H        13.1249986643        2.8643635041       12.8756077952
  H        11.3214256909        2.9673304873       12.8313537833
  C        12.0332139465        1.0847871233       13.6966434596
  N         7.5307216649        8.5932120570       11.9708935260
  C         7.0914697949        8.0709443410       14.1514502813
  C         6.8049066073        5.9267495904       15.0656482826
  H         7.1684588364        4.2564554344       13.8176175459
  C        11.8803524455        6.0766324629        4.5800441168
  C         9.5121937711        6.0174493637        3.6101521103
  C        11.1387673565        3.3986534101        2.4137191665
  C        11.3243802826        2.0268114931        2.3658940086
  H        13.0130432024        0.5252583700       13.6877421389
  H        11.1930856623        0.5185182067       13.4039664847
  C        11.9386888159        1.4023127331       15.2084268485
  S         7.5820893118       10.0139942110       12.7459544709
  N         7.0313008400        9.4654482064       14.2061141394
  C         6.7405052058        7.3736534089       15.3005062756
  H         6.4573718980        5.3429636687       15.9411222238
  H        11.6240458086        6.7493232131        5.4374223481
  H        12.0139340864        6.7445123431        3.6856526735
  C        13.1550110849        5.2757159140        4.8675256624
  H         9.2289224800        6.8233154037        4.3328081052
  H        10.0058386116        6.4323068671        2.7485189822
  C         8.3165111191        5.2800016927        3.0203605768
  H        11.2049523018        4.0969695196        1.5692104022
  C        11.6170634088        1.2074751854        1.1179893370
  H        11.1743186558        2.2085594516       15.3466819945
  H        11.4567792124        0.5626166963       15.6719025480
  C        13.2031836851        1.6521895294       15.9978916399
  C         6.4483541281        8.0030315380       16.6116437083
  H        13.0255308407        4.6685702682        5.7570042302
  H        13.4744574089        4.6524769534        3.9742123654
  C        14.3247216612        6.1565614259        5.2609374728
  H         7.9882367350        4.5056635359        3.7192541451
  H         8.5638837798        4.6605260146        2.1337562823
  C         7.2408135188        6.3381070793        2.6177796312
  C        11.7346721587       -0.1934709426        0.9142678869
  C        11.8277653129        1.9732617632       -0.1565255009
  H        13.8571493981        2.4557710991       15.6208398126
  H        13.9250631480        0.8090601398       16.0357907282
  C        12.9508495433        2.0520764478       17.4726497223
  H         6.5213485749        9.0990735616       16.5480248270
  C         6.2267823394        7.5126777683       17.9214677097
  H        14.1335338387        6.6630699607        6.1644450524
  H        14.4548145958        7.0024659307        4.5278283746
  C        15.6728703691        5.4738249087        5.4271912654
  H         6.8629082405        6.8727176046        3.4952210107
  H         7.6488912562        7.2229134237        2.0932275553
  C         6.2515042214        5.6369839920        1.7183668723
  N        11.4524473899       -1.1361264064        1.9259291641
  C        12.1102526970       -0.8425422889       -0.2543373382
  C        12.1353928036        1.3322960577       -1.3562918981
  H        11.8570129960        3.0748228284       -0.1517290046
  H        12.6489272931        3.0389143011       17.5717875593
  H        13.7510227550        1.8663693995       18.1282754146
  H        12.1275282119        1.5302934824       17.8326158525
  S         5.9491710204        5.8197612272       18.4040636050
  C         6.1674939589        8.4491508797       19.0555649948
  H        15.7668717551        4.5814364791        4.8099572056
  H        16.4220425943        6.1473302448        5.0175026902
  C        16.0071754304        5.1081483120        6.8644779107
  H         5.6806537150        4.9249028947        2.3600044568
  H         6.6922114812        5.1289735497        0.8429505213
  C         5.3328059746        6.6131690392        1.1787755786
  S        11.8174345683       -2.6257086034        1.4769688850
  N        12.2061225742       -2.2314341504       -0.0952841600
  C        12.4069920329       -0.1237288522       -1.4008193012
  H        12.1907249271        1.9649064596       -2.2284662028
  C         5.7200154870        6.4111681562       20.0409775569
  N         5.8233890021        7.7514369492       20.1678304936
  O         6.4117983453        9.6113458414       18.9027765190
  H        15.7331998585        5.8682883964        7.5234989716
  H        15.3412478901        4.3897466751        7.2157125410
  C        17.4345010319        4.6299747777        7.1563008986
  H         5.9157951354        7.3478635513        0.5790018867
  H         4.7094699159        6.0104960547        0.4573909429
  C         4.1894774216        7.1582197245        2.0968795157
  C        12.6733284379       -0.8945482131       -2.6023919303
  S         5.3040289575        5.4002579334       21.4492810349
  C         5.8461388083        8.3510393596       21.5530690417
  H        17.4756630105        4.2495907987        8.1369814995
  H        17.8338721589        3.7826041235        6.5675021892
  C        18.4877312292        5.7436861523        7.0647535554
  H         4.4916233383        7.6082839910        3.0220276298
  H         3.6750857525        6.2357319093        2.4455760557
  C         3.3181759624        8.2074930169        1.4096063401
  H        12.5807960265       -1.9709514113       -2.5195264207
  C        13.1514037062       -0.5175298618       -3.8370199249
  H         5.0887577487        7.9912292301       22.2246015455
  H         5.5854705452        9.3412440066       21.4244701914
  C         7.3434072148        8.4526141860       22.0647103274
  H        18.9274408667        6.0222128957        8.0219932049
  H        17.9503949716        6.5670922630        6.7283593298
  C        19.5695503637        5.5040429445        5.9753124887
  H         2.9963800420        7.6686752234        0.5113862022
  H         2.5133466324        8.3036259730        2.1242854571
  C         4.0119067793        9.5070463561        0.8959981177
  S        13.6226884888        1.0780220768       -4.4142661168
  C        13.2728881910       -1.5794932401       -4.8936325731
  H         8.0492632272        8.0668187667       21.2911449538
  H         7.4676301227        8.0034431531       23.0043573223
  H         7.6021134319        9.4810024759       22.2833685030
  H        19.1207664763        5.3759613743        4.9688551612
  H        20.2819281114        6.3514940388        5.9787292297
  H        20.2827490676        4.7228173421        6.1504388977
  H         4.0403719185        9.4737156275       -0.1767416212
  H         3.4739983534       10.3964291738        1.2018580979
  H         5.0294853148        9.5421083031        1.2551870207
  C        14.0106126903        0.2994795372       -5.9372396794
  N        13.8876884981       -1.0659851486       -5.9376650103
  O        13.0565047048       -2.7608841808       -4.6357588585
  S        14.6806397453        1.1237505994       -7.3489850382
  C        14.0816658223       -1.9244706237       -7.1142891969
  H        14.3075480409       -2.9514389800       -6.7566421207
  H        14.9588314560       -1.6281740597       -7.6722767332
  C        12.7687075849       -1.7614853236       -7.9564687652
  H        12.9045877343       -1.0280254061       -8.8643377996
  H        11.8734874036       -1.6038879445       -7.3283476819
  H        12.7444162580       -2.7134728687       -8.4688580948
