352
 i =    88200, time =    44100.000, E =        99.0047139657
  H        12.1152339822        7.0705832456       32.5870607201
  C        11.9546014275        6.0037062142       32.7054188461
  H        12.9851785261        5.5182556518       32.4250948775
  C        11.0322010873        5.3759748351       31.6891524973
  C        11.5538764194        5.7453099656       34.2114259215
  C        11.5939485842        5.6195940780       30.2411447251
  H        10.9224197138        4.3428879735       31.9161706660
  H        10.0737975128        5.9375627089       31.7935897703
  H        12.4194559010        5.4711925187       34.8514402554
  H        11.0311379113        6.6176415288       34.5847084816
  H        10.7862406940        5.0333347726       34.1763603083
  C        10.3791351823        5.8641547476       29.3318541214
  H        12.1582270319        4.6953940511       29.9512182039
  H        12.3313636840        6.4018326324       30.2186955365
  C        10.6143196635        5.7330606669       27.8168318917
  H         9.6723690614        5.0504281831       29.6293604114
  H        10.0046954319        6.8691668849       29.5167052097
  C         9.5343496703        5.0243518634       27.0243257502
  H        11.5599183302        5.1456548482       27.6119091933
  H        10.8184555721        6.7384789008       27.3673679666
  C         8.3513001854        5.9180056648       26.7174044746
  H         9.7674835789        4.5968806178       26.0535348231
  H         9.1737766418        4.2131866791       27.6712949668
  C         7.1542876867        5.2240006025       26.0373722048
  H         7.8875620901        6.3644726484       27.5880577122
  H         8.7135766730        6.7615106088       26.0775295209
  C         6.8048729521        3.8856614153       26.6544235793
  C         7.6299414210        4.5914304865       24.7464698835
  C         5.9651275994        6.1570786210       25.8023642020
  C         7.0123770449        2.8169260495       25.8122185760
  C         6.1918483695        3.4826351921       27.8494535736
  C         7.5303425835        3.2507969103       24.6079696792
  C         8.2197542760        5.2386202866       23.6233814130
  H         6.3672142746        6.9764309871       25.4145515851
  H         5.5676343276        6.3653318748       26.7549072755
  C         4.8052449681        5.4788644904       24.9965581855
  S         6.5232824421        1.3141334080       26.4394133599
  C         6.2327071982        2.1124338582       27.9386473673
  H         6.0416660806        4.1694192467       28.6124714879
  C         7.7603590944        2.6801892538       23.3999980237
  H         8.2758778071        6.3116825180       23.6175055829
  C         8.4961314031        4.6427233948       22.4276684327
  H         5.1210344533        5.2600620886       23.9271681602
  H         4.5860833491        4.5600621383       25.5267389813
  C         3.4609294453        6.2829213039       24.9586635456
  C         5.8134641684        1.3885572406       29.1937564775
  C         8.3231905448        3.3009725848       22.3319554306
  H         7.5353552254        1.6528282361       23.2469602437
  C         8.9384712550        5.0717073005       21.1704653770
  H         2.7120298993        5.9520844968       24.2225442702
  H         3.6776171695        7.2923263768       24.6504395308
  C         2.7886953301        6.3369159448       26.3431240175
  C         5.9390283201        0.0257087088       29.4803612325
  C         5.3205770545        2.2327553403       30.3395606380
  C         8.5845429429        2.6439539500       21.0032961628
  C         9.0314327923        4.0120274581       20.3198761177
  S         9.3810708837        6.6300714620       20.4251278241
  H         1.8876063106        6.8721690442       26.1143493447
  H         3.3379883185        6.9374546343       27.0656830846
  C         2.5305871299        4.9587529969       26.9700189217
  N         6.4205725737       -0.8859250960       28.5237589555
  C         5.6966047791       -0.5373696045       30.6633813260
  C         5.0656438393        1.6511891816       31.5415001948
  H         5.0413466124        3.1966047781       30.1990243553
  C         7.3572311538        1.9827482334       20.2477306434
  C         9.7916010173        1.6711739006       21.0825592528
  C         9.3748418481        4.4786351193       19.0533084395
  C         9.6528942819        5.8804401568       18.9681490695
  H         2.1531434296        4.3060278602       26.1471736900
  H         3.4965340927        4.4163399507       27.1073586488
  C         1.6732050777        4.8947312387       28.2227155818
  S         6.3051093420       -2.4229093145       29.1601254697
  N         5.8752270329       -1.8805844007       30.6466906053
  C         5.2521032083        0.2306836652       31.7411613803
  H         4.7681612402        2.3418696903       32.3216096241
  H         6.9855001319        1.2121723535       20.8542904553
  H         7.7060990234        1.5840227741       19.2428185270
  C         6.1874977622        2.8986857914       19.8752685288
  H        10.0677065297        1.3677751137       20.0036544298
  H         9.6434465353        0.8318246366       21.7772861801
  C        11.1119138434        2.4301509688       21.4131256909
  H         9.4282362039        3.8220821898       18.2079780881
  C        10.1479549694        6.6615181203       17.7422104539
  H         1.4513169085        3.8879036074       28.4759307763
  H         0.7176427461        5.4228859185       28.0922887050
  C         2.5786783916        5.3852997343       29.3709139935
  C         5.0699503227       -0.4818865933       32.9463438001
  H         6.5315867562        3.6889338248       19.2555233212
  H         5.6953555221        3.2660109072       20.7419893110
  C         5.2213254721        2.1717581401       18.8381653834
  H        11.1038015260        3.1682576459       22.2696513345
  H        11.4761190228        3.0677939418       20.5623160644
  C        12.2098767883        1.4358627464       21.6140764483
  C        10.3211742680        8.0537977385       17.6202614508
  C        10.2314560408        5.9415178038       16.4444495156
  H         3.3388221913        4.5875979646       29.5073963920
  H         3.0401907120        6.2406588431       28.9651421799
  C         1.8992521131        5.5952180726       30.6742622444
  H         5.2515739033       -1.6127446419       32.9848506067
  C         4.7728622751       -0.0653191302       34.2155703639
  H         5.8691652362        1.5237090060       18.2091688782
  H         4.8264981061        2.9241825856       18.1741699939
  C         3.9317055064        1.4674917482       19.4034581715
  H        12.1584034649        0.8345835428       22.5379867316
  H        12.2498185797        0.7363360339       20.7198723276
  C        13.5039304741        2.1062724748       21.7778566818
  N        10.1425644944        8.9035982782       18.6745369256
  C        10.5598729399        8.6784807374       16.4237918788
  C        10.5932947055        6.5849012295       15.2094590883
  H        10.0247978615        4.9083278082       16.3763599349
  H         1.0760449922        4.8876731036       30.7671737919
  H         2.5619537117        5.4567964957       31.5207128588
  H         1.4800129155        6.5871159203       30.6718616998
  S         4.5301831481        1.5408302814       34.6797477108
  C         4.7322966696       -1.1029733206       35.2846091373
  H         4.0752373662        1.0858704288       20.3927764853
  H         3.0666435516        2.1236137790       19.5652417570
  C         3.5375249434        0.3040272807       18.4827916570
  H        13.3839975204        3.1275869334       21.8575137737
  H        14.0674184421        2.0379162884       20.8805613700
  C        14.4742437896        1.5670214493       22.8991054320
  S        10.2864985552       10.4114325549       18.1440962393
  N        10.6257870611       10.0605975395       16.5878866822
  C        10.7918640798        8.0544141613       15.1536930019
  H        10.8004940991        5.9691553077       14.3082383431
  C         4.2081616420        0.8233362953       36.2442803248
  N         4.2879006154       -0.4941641871       36.4317199201
  O         5.0665036892       -2.3139707699       35.2284864563
  H         4.3991744188       -0.3118956686       18.3778122500
  H         3.3485490757        0.7208458510       17.4648238175
  C         2.2856635970       -0.5395693870       18.8166501665
  H        14.0489119519        1.2855736949       23.8231207326
  H        15.0007401147        0.6807118959       22.4297940568
  C        15.4721686840        2.6807325236       23.1753856429
  C        11.2046607398        8.8691876516       14.0639245007
  S         3.9181349844        1.9566695825       37.5960139003
  C         4.2042856325       -1.1435593891       37.7427678826
  H         2.2653507726       -1.0625126297       19.8038281375
  H         1.3731221709        0.0383351521       18.7196535542
  C         2.1827643852       -1.8693941041       18.0078396446
  H        15.5404906960        2.6979644101       24.2727856414
  H        15.1129855829        3.6852669850       22.9924412167
  C        16.8130838523        2.5450207793       22.5068240213
  H        11.0018020837        9.8641129922       14.2149875313
  C        11.5768556463        8.4957813149       12.8072684209
  H         3.3555626777       -0.7248677929       38.2206713881
  H         3.9679994408       -2.1999564873       37.5502816760
  C         5.4791245213       -1.0012088809       38.5995295182
  H         1.4294249531       -2.4290769888       18.5986232959
  H         3.1987753064       -2.2410974300       18.0952755962
  C         1.8587660692       -1.6796317786       16.5377850185
  H        16.7648770762        2.0955902785       21.5194622836
  H        17.2329072753        3.5306656543       22.3429786775
  C        17.8432872120        1.7401581670       23.2913326580
  S        11.9573680714        6.8786925765       12.3504732008
  C        11.6544760192        9.4808294030       11.7499577268
  H         5.5211014561       -1.8174363599       39.2966696137
  H         6.3505489559       -0.9816972184       37.9235001194
  H         5.5146231149       -0.0422460159       39.2179876947
  H         2.4061015663       -0.7898178795       16.2056849896
  H         0.7886099944       -1.4441200791       16.3546141441
  H         2.1833297421       -2.5878817319       15.9536152655
  H        18.0307118521        2.2632441190       24.2225742451
  H        18.8207188268        1.6158918073       22.8231741266
  H        17.6001332885        0.7136826601       23.6346248821
  C        12.1723393773        7.5355092820       10.7206586563
  N        12.1864950350        8.9449753294       10.7060369107
  O        11.5767292231       10.6725311901       11.8681317547
  S        12.7860268853        6.7771639867        9.1855142482
  C        12.5203961427        9.6800144455        9.4628837354
  H        12.7380000086       10.6976802624        9.7302561102
  H        13.3310138319        9.2502748318        8.9230021532
  C        11.3927367207        9.7832774721        8.4549738170
  H        10.5312947789        9.1354804567        8.7410836311
  H        11.0139849139       10.8480047712        8.6685027606
  H        11.6639964610        9.6236530506        7.4166674074
  H         4.9554835664        1.5758857231       12.8133940472
  C         4.2957262476        2.4519592339       12.7659220854
  H         4.9812744666        3.2894647943       12.9825973985
  C         3.6247495016        2.5188767378       11.4007511208
  C         3.3230145992        2.4527436152       13.9440832444
  C         4.6280794659        2.7018286436       10.2789230139
  H         2.7845972804        3.2590681301       11.2226857984
  H         3.2606231085        1.5384679645       11.2021172781
  H         2.7779457615        1.5087996580       13.9540982828
  H         2.6967387938        3.3468199943       13.8984259466
  H         3.8277366492        2.5246744507       14.9110227671
  C         5.2227430158        1.3673768726        9.8340266557
  H         4.1096015649        3.1066875529        9.3906162526
  H         5.4670017025        3.4044523542       10.5272620142
  C         6.1105679790        1.5285426822        8.5978305408
  H         4.4666458120        0.6970872911        9.5591980451
  H         5.8364226848        0.8996567765       10.6391075294
  C         7.2542963568        2.5327087306        8.6598403660
  H         5.4111080003        1.6963633759        7.7552357922
  H         6.5915297246        0.5323448113        8.4365969412
  C         8.5416639780        2.1112958971        9.4600671177
  H         7.5044649356        2.5987935042        7.6659706429
  H         7.0255500586        3.5358964145        8.9535519838
  C         9.7316554973        3.0985645806        9.5874105241
  H         8.8578603282        1.1823596182        9.0447039026
  H         8.2348545794        1.7493233377       10.4276688616
  C         9.1800209650        4.3900103990       10.2203650058
  C        10.0874621799        3.7793545428        8.3010435098
  C        10.9942257820        2.4038439917       10.2620392504
  C         9.3585722232        5.4820923419        9.3532253767
  C         8.5322323533        4.6512705572       11.4189735630
  C         9.8859924971        5.1073082096        8.1049383441
  C        10.5805909397        3.1833648317        7.1141274385
  H        10.6071083206        1.8012880275       11.0682213191
  H        11.3403574454        1.6405954274        9.5417480390
  C        12.0483716484        3.3642064552       10.6812215687
  S         8.5742786076        6.8912964216        9.9605013902
  C         8.2636929265        5.9749475846       11.4577899198
  H         8.4127818269        3.9074467477       12.1907432978
  C        10.2239521932        5.7733606069        6.9626296235
  H        10.7235295974        2.1470552285        7.0567620146
  C        10.8218795248        3.8576706908        5.9518873589
  H        11.7026080877        4.2717794976       11.1994435456
  H        12.4838175362        3.6151231835        9.7050800187
  C        13.2326576249        2.7659978615       11.4482112339
  C         7.7883897018        6.7139351172       12.6720917275
  C        10.6432515989        5.2049486132        5.7688116064
  H         9.9757109577        6.7984318706        6.8710089431
  C        11.1630642773        3.4699061418        4.6488825666
  H        13.9593915498        3.5218120962       11.6462190556
  H        13.5845869418        1.8516743130       10.9220807460
  C        12.7530350748        2.2218732702       12.7919315437
  C         7.9313257869        8.0855419565       12.9328721493
  C         7.1604944797        5.9314459480       13.7882304162
  C        11.0052180386        5.8687029794        4.4691215345
  C        11.3693030896        4.5336790592        3.8018996291
  S        11.4889135263        1.9555627697        3.9475290292
  H        11.7397767630        2.0419840657       12.6806572732
  H        13.3032020025        1.3426096465       13.0999239201
  C        12.9160369874        3.0927189875       14.0280421187
  N         8.4839581455        9.0236185137       12.0937641822
  C         7.5768482930        8.6280459347       14.1719122986
  C         6.8731776668        6.4577787405       15.0501551548
  H         7.0458012419        4.8762580245       13.8019559236
  C        12.1350753737        6.8450834562        4.5721148067
  C         9.9082232386        6.5392317268        3.5690604271
  C        11.7859181637        4.0815910617        2.5531718035
  C        11.8337305726        2.7079542201        2.4406035109
  H        12.8867018210        4.1631033958       13.6608719947
  H        13.9615870042        2.9792997304       14.3648580229
  C        11.8589142615        3.0469643057       15.0811966137
  S         8.4196855749       10.4737513964       12.8216113197
  N         7.7881218274       10.0139049335       14.2564494430
  C         7.0831019742        7.9329756777       15.3101366115
  H         6.6217460671        5.7945011733       15.8878907189
  H        11.8981898687        7.6538550169        5.2841094522
  H        12.2592281761        7.2193187854        3.6117834028
  C        13.3285337404        6.0786191967        5.1465617026
  H         9.7599517218        7.4814248731        4.0517644243
  H        10.2626986032        6.7307907157        2.5814359092
  C         8.5752527106        5.8038226487        3.4413486733
  H        12.0506090566        4.8324940997        1.8417250106
  C        12.0910760491        1.9785799924        1.1837365533
  H        11.7714935603        4.0510510700       15.4308980084
  H        10.7934017293        2.8802157678       14.8443451040
  C        12.2924093049        2.0297276850       16.2231561032
  C         7.0137288052        8.6382318459       16.5309114478
  H        13.1773482137        5.3202356516        5.8172817695
  H        13.6988705980        5.6502175481        4.2650038068
  C        14.3754785664        6.9289830279        5.8442789056
  H         8.0390261135        5.9024911307        4.3560946014
  H         8.7251896212        4.7284355661        3.3024774231
  C         7.7576995671        6.4477006413        2.3321557309
  C        12.1469149354        0.5458555955        1.0525516309
  C        12.2996442387        2.8030674073       -0.0357672829
  H        12.9381951703        1.2801174355       15.9114865496
  H        11.3459789545        1.5964501903       16.5482673084
  C        13.0640029703        2.7413802728       17.2981088930
  H         6.7949131042        9.6651028562       16.4704946855
  C         6.7311924730        8.2631400551       17.8027838059
  H        13.7971428210        7.6225363443        6.5171483688
  H        14.8205723131        7.6504289884        5.1631637313
  C        15.4377601494        6.1740701484        6.6427996921
  H         8.0842712520        7.5253347690        2.2131418265
  H         7.8750823827        5.9439398349        1.3375328130
  C         6.2504295257        6.4342429126        2.5253320521
  N        12.0140144061       -0.3318045469        2.0315777982
  C        12.2905972559       -0.0384660652       -0.2111393267
  C        12.3389522612        2.1232122826       -1.2772108158
  H        12.2501127027        3.8628787632       -0.1438768319
  H        12.4290824980        3.3123033670       17.9552138273
  H        13.8384225556        3.3851686200       16.9130680748
  H        13.6080822692        1.9893785974       17.8608719152
  S         6.5103943930        6.6219544686       18.2407146608
  C         6.6213150969        9.2835053851       18.8653827028
  H        15.8911262924        6.6585693511        7.4561127251
  H        14.9557933802        5.2818106986        7.0988331322
  C        16.6670759987        5.7314262165        5.7230332551
  H         5.9224543088        5.5525534342        3.0433777180
  H         5.7303815518        6.4094340538        1.5698531860
  C         5.9035680952        7.6411406027        3.4002953463
  S        12.0166969611       -1.8222593593        1.3542631959
  N        12.4158287090       -1.3898002653       -0.1194628264
  C        12.5117204965        0.6459817611       -1.4408490779
  H        12.4450304291        2.7458583332       -2.1657871829
  C         6.2099950650        7.3001294767       19.8650979770
  N         6.2834613038        8.6357535509       19.9568674300
  O         6.7695316557       10.5185985468       18.6649322212
  H        16.2208315636        5.2824214578        4.8065614909
  H        17.0465212926        6.6983895378        5.4486677735
  C        17.7137682564        4.9172752610        6.4213086109
  H         5.0665602096        7.3817878203        3.9512791366
  H         6.6955160261        7.7719194799        4.0403061523
  C         5.5470454858        8.9322542674        2.6388680546
  C        12.7249771969       -0.1182728852       -2.6164997511
  S         5.9311323587        6.3709665465       21.3524458804
  C         6.2315227833        9.3976664451       21.2122890387
  H        17.2425713518        4.0893777824        7.0289190874
  H        18.4298108324        4.6136552282        5.5951404632
  C        18.5761418885        5.6622935956        7.4967982342
  H         6.4112942490        9.2555031995        1.9769696506
  H         5.4503143057        9.6377501900        3.4769538939
  C         4.1974618597        8.8659096724        1.8450075869
  H        12.5011594287       -1.1638624767       -2.5255089826
  C        13.1700686142        0.1684350942       -3.8815646547
  H         5.2431155007        9.1879350441       21.6777292201
  H         6.0158973756       10.4413845623       20.9488725237
  C         7.5477346169        9.4556703970       22.0366865172
  H        18.6000301925        5.0222770858        8.3834784762
  H        18.0140511156        6.5597765859        7.9417847737
  C        19.9676288340        5.9937785888        6.9889808579
  H         4.1411958469        7.9678135840        1.2430924317
  H         3.3886909193        8.5656835344        2.5448557537
  C         3.5510380019       10.2439145782        1.3773645069
  S        13.7077447977        1.7414272049       -4.3743619266
  C        13.4494943524       -0.9344936731       -4.7758420426
  H         7.8432609189        8.4377850424       22.3560555427
  H         7.4327963104        9.9800719551       22.9704235160
  H         8.3287126229        9.9613826762       21.6142534062
  H        19.9507388327        6.6532741297        6.1182508024
  H        20.4883676709        6.5321812146        7.7820689603
  H        20.5048682090        5.1218508956        6.6339934171
  H         2.4744450866       10.2612156066        1.3834670613
  H         3.9372560355       11.0478428478        2.0053189497
  H         3.9250659120       10.4417280884        0.3985552401
  C        14.1342886706        0.8940522000       -5.9062262108
  N        14.0386628586       -0.4261022819       -5.8485200823
  O        13.1193517997       -2.0989051140       -4.5967799755
  S        14.5922717339        1.5602911902       -7.4849941176
  C        14.2772524244       -1.3322400097       -7.0650845673
  H        14.3962754618       -2.3329625033       -6.6459464233
  H        15.2923062270       -1.1391419459       -7.4816068667
  C        13.1647939384       -1.2433646459       -8.1992203095
  H        12.2010395779       -1.4736142161       -7.7852267989
  H        13.4311354539       -1.9406234312       -9.0031008308
  H        13.1677519424       -0.4246808531       -8.8083571475
