352
 i =    56200, time =    28100.000, E =        99.9628236301
  H        10.1021564067        4.4137492650       31.6936333891
  C        10.4077422246        5.3338150188       32.1525394188
  H         9.4514400355        5.8186927713       32.4174687181
  C        11.2402777911        6.1749310770       31.1783993673
  C        11.1188158534        4.9789743690       33.5248039793
  C        11.5884258838        5.4113535944       29.8581547859
  H        10.7760831545        7.1199507661       31.0142476869
  H        12.2752201098        6.3821966228       31.5172818348
  H        11.3164696138        5.8665273415       34.1271466693
  H        10.4818033368        4.3890285302       34.1616637244
  H        11.9501373081        4.3491161378       33.2914466617
  C        10.3368793781        5.1088784617       28.9904235654
  H        12.0444369562        4.4771146397       30.0414354595
  H        12.3785252913        6.0000154628       29.3459428290
  C        10.8002349462        5.0475493605       27.5994375060
  H         9.8300417620        4.2408218839       29.3642829880
  H         9.5946257481        5.9722206606       29.0689964356
  C         9.7790118756        4.4205835811       26.6567211052
  H        11.5780896881        4.3050735286       27.6091671620
  H        11.1620603738        6.0126418127       27.3825843638
  C         8.5606139080        5.3833666855       26.4651419483
  H        10.1871231985        4.3057495872       25.7395450656
  H         9.5974807943        3.5096771824       27.1044686888
  C         7.4473611902        4.7684108956       25.6290360189
  H         8.1407154549        5.6772680684       27.3797242770
  H         8.9020795203        6.3334020407       26.0407242477
  C         7.0887909398        3.3897102283       26.2272031323
  C         7.7307197524        4.0905369554       24.3195300812
  C         6.1880082965        5.6292159297       25.5436288418
  C         7.1736624403        2.2970770403       25.4141782069
  C         6.6378976102        2.9612152099       27.5172667776
  C         7.6921774026        2.7355624588       24.1565448757
  C         8.0984909880        4.7269254047       23.1520566534
  H         6.4208885485        6.5648480127       25.0601984789
  H         5.9094905674        5.7858790867       26.5016391692
  C         5.0057058742        4.9829048858       24.7299565768
  S         6.6877502189        0.8692893432       26.0270046662
  C         6.3952585157        1.6177889362       27.6007321534
  H         6.4527249600        3.7425249481       28.3094110365
  C         7.9757009678        2.1440538900       22.9477479633
  H         7.9410690726        5.8359703655       23.2458921200
  C         8.5093545454        4.1130324370       21.9920821934
  H         5.3044012901        4.9257887960       23.7191927157
  H         4.9250686590        3.9303526920       25.0217808103
  C         3.6127872509        5.6628073138       24.8545742833
  C         5.7534353912        0.9207249790       28.7908867993
  C         8.3971475273        2.7917249263       21.7800687320
  H         7.9931631528        1.0604460226       22.8549716833
  C         8.8889323973        4.5685327487       20.6991141186
  H         2.9729540050        5.1082827324       24.2214150327
  H         3.7404143685        6.6067694181       24.3957107571
  C         3.1066144681        5.6371831936       26.2413421480
  C         5.7584244527       -0.4722357586       28.9915455856
  C         5.0817964810        1.7071124453       29.8663966665
  C         8.8570805916        2.1372998782       20.4976059821
  C         9.0939768304        3.4849800202       19.8292498831
  S         9.3384590917        6.0720789767       20.0633140525
  H         2.2459154597        6.3511837413       26.1899145273
  H         3.7784213066        6.2903459961       26.7574871520
  C         2.8723065948        4.2505329196       26.8586324973
  N         6.0695086942       -1.4946139191       28.1192961898
  C         5.4015223428       -0.9519953803       30.2524025112
  C         4.6789985366        1.1703970154       31.1343530311
  H         4.9683023843        2.7343139209       29.6822293105
  C         7.7246631454        1.2869768619       19.7931181024
  C        10.1673402949        1.3146760319       20.5894078863
  C         9.5182789685        3.9433073741       18.5598490255
  C         9.4732481028        5.3247943401       18.5198672471
  H         2.4963373688        3.4849581729       26.2157972641
  H         3.7238724824        3.8850497956       27.3608743837
  C         1.7336151623        4.2161402254       27.9206549611
  S         6.0156189767       -2.8820906578       28.8850797956
  N         5.4835389873       -2.3042897779       30.3036911779
  C         4.9441665563       -0.2362913272       31.3702367185
  H         4.2314220615        1.8828321046       31.8340303015
  H         7.3555868157        0.5874777221       20.5709620815
  H         8.0805298423        0.6454235283       19.0029031707
  C         6.5392208554        2.1129035967       19.3754029095
  H        10.5265373853        1.0539315860       19.5906356845
  H         9.9903204175        0.3228654352       21.0405902316
  C        11.2788002594        2.0463488020       21.3746541809
  H         9.6464473826        3.2961544724       17.6559217223
  C         9.7943173344        6.1221268799       17.3173278049
  H         1.0819290708        3.3194442579       27.8050408019
  H         1.0519476645        4.9909933335       27.5632425982
  C         2.2592298231        4.6376097544       29.2630752558
  C         4.7043510794       -0.9622019298       32.5765600108
  H         6.7323799265        2.8277539210       18.6396072582
  H         6.1832934201        2.6994191495       20.1711372448
  C         5.3591703421        1.1586274438       18.9470973532
  H        11.1053050179        1.8621309339       22.4393609417
  H        11.3632105413        3.1333534559       21.3973745191
  C        12.6514934353        1.4109458910       21.2229675836
  C         9.9256292126        7.5371989979       17.2448450668
  C        10.1081273225        5.3557134942       16.0715552668
  H         2.7793397635        3.8650676135       29.8597397837
  H         3.0153273950        5.4924491449       29.2051405691
  C         1.1087873220        5.1842405173       30.1007446477
  H         4.8175389208       -2.0249922697       32.5426929668
  C         4.3955511143       -0.5207695875       33.8606830246
  H         4.8784523054        0.8533486328       19.8418386617
  H         5.7927552192        0.3406898148       18.4485633333
  C         4.3285612422        1.8330926931       18.0792975377
  H        12.6611821927        0.5689391104       21.8762184657
  H        12.7126416811        1.0501776287       20.2525440478
  C        13.7141127505        2.3599461712       21.4861161849
  N         9.5698719183        8.4290819386       18.2823415455
  C        10.3141592670        8.1454503667       16.0678677018
  C        10.4735448144        5.9539907241       14.8897487369
  H        10.2841753325        4.3268220781       16.1134704980
  H         1.4875553343        5.0328655161       31.0818130249
  H         0.8449162483        6.1460577769       29.8537474510
  H         0.2122964487        4.5741034758       30.0007325168
  S         4.1748596454        1.0903063661       34.3508001187
  C         4.1980402596       -1.4650080277       34.9739409305
  H         4.1840765829        2.8531572768       18.3290384957
  H         4.6918100086        1.8384855790       17.0343068776
  C         2.9303671683        1.2494221040       18.1680809799
  H        13.5066433283        2.8932193197       22.4105252299
  H        13.9403281015        3.1369154312       20.7337886045
  C        15.0202654784        1.5013180534       21.7339501086
  S         9.8251239376        9.9215752175       17.6948870344
  N        10.3574070395        9.5162007088       16.2337686056
  C        10.5557906041        7.3889664233       14.8575026570
  H        10.7911830416        5.3600371479       14.0205622389
  C         3.9777793598        0.5308567773       36.0343341318
  N         3.9111036840       -0.8256945706       36.1499879623
  O         4.2259051393       -2.6900149797       34.7534108623
  H         2.2868289146        1.9595530650       17.6368997991
  H         2.5496200181        1.0176610202       19.1872649440
  C         2.8125607060       -0.1413983407       17.4815289346
  H        14.8465095148        0.8739355951       22.6270143434
  H        15.1108996343        0.6373703007       21.0719831336
  C        16.2642881011        2.4194947120       21.9714945631
  C        10.8251180264        8.1331740570       13.5923976119
  S         3.5823838983        1.5113233634       37.4854263307
  C         3.7250400510       -1.4799516542       37.3996338696
  H         2.4006107912       -0.0488651883       16.4919917871
  H         3.7856233658       -0.6992192128       17.1856327566
  C         1.9159258169       -1.0870255178       18.3208854791
  H        15.8399550765        3.3273328396       22.4566518173
  H        16.6912552062        2.7503460513       21.0168198528
  C        17.3746511797        1.7863689994       22.8939169903
  H        10.7148387546        9.2140576470       13.6697390811
  C        11.2937525249        7.8480089998       12.3013743268
  H         3.0258910106       -1.0099302029       38.0650943969
  H         3.3843413485       -2.5207675499       37.2641359056
  C         5.0380058583       -1.4691156027       38.1110618274
  H         1.0232235115       -0.5816567220       18.5159165241
  H         2.3730835491       -1.3563808062       19.2520637572
  C         1.6126967504       -2.4011597267       17.6177799356
  H        17.7190014777        0.7830987439       22.6108555073
  H        18.2110744425        2.4681701129       22.6658936124
  C        17.1677848762        1.8389536221       24.3909127220
  S        11.7829659707        6.2799310854       11.7166026992
  C        11.5343523234        8.9839601740       11.3814296463
  H         4.8261076282       -1.9019606129       39.0983834064
  H         5.8937693032       -2.0535794588       37.6424806421
  H         5.3677099469       -0.4764900897       38.2244374214
  H         1.2356845110       -3.1859107655       18.3231347930
  H         2.4523336368       -2.9091542780       17.0953516128
  H         0.8663907318       -2.2072008528       16.7687387858
  H        18.0972098311        1.8833953533       24.9210708294
  H        16.6834776585        0.8517020404       24.6195197209
  H        16.6429893300        2.7644689938       24.6564599574
  C        12.1083116129        7.0773543839       10.1569074346
  N        11.8774870606        8.3993015066       10.1938438274
  O        11.3406874932       10.1530775811       11.4911410025
  S        12.3957712338        6.1512666370        8.6850355050
  C        11.7524035226        9.2077993131        8.9645425729
  H        12.1398573744       10.2317655983        9.2224496246
  H        12.3182455900        8.9282868109        8.0675140123
  C        10.3109196352        9.3565396117        8.4763622279
  H         9.9418261687        8.3492445663        8.1548923926
  H         9.6000446569        9.6068698458        9.3235768885
  H        10.1050552631       10.1013527818        7.7388397537
  H         4.5215317524        1.6089263663       12.2238220762
  C         3.5591970057        2.2239043656       12.2088455485
  H         3.8140161646        3.2445709351       12.0344680590
  C         2.6500035618        1.8763469934       11.0620146907
  C         2.7704836566        2.0035775116       13.5234279939
  C         3.4383615268        1.9460372354        9.7195425044
  H         1.8301598667        2.5202074933       11.0705575409
  H         2.2618767258        0.8323770628       11.1831579995
  H         2.0647657116        2.8123849395       13.7267583817
  H         3.4653276190        1.9667001806       14.3233666880
  H         2.2171600607        0.9968763234       13.5341980947
  C         4.4027925654        0.8203238930        9.3098383594
  H         2.6723159862        1.9881868575        8.8891066460
  H         3.7864909546        2.9528516896        9.6444037599
  C         5.1573806360        1.1639377592        8.0265046693
  H         3.8512235780       -0.1314101820        9.3023548346
  H         5.1240687092        0.8365984392       10.1800225170
  C         6.3102013085        2.1262217664        8.3470000358
  H         4.5085751075        1.6129816887        7.2869721173
  H         5.5694318205        0.2706630962        7.5253564320
  C         7.6592779335        1.4845768580        8.8476935250
  H         6.4335562898        2.6851337058        7.4216029380
  H         5.9841394586        2.8801512031        9.0863737359
  C         8.8129136216        2.4892042505        9.1087802069
  H         8.1593490404        0.6975388389        8.2051263042
  H         7.4382311771        0.9837224413        9.7336624056
  C         8.3929308735        3.8043314008        9.7769305801
  C         9.2490143947        3.2158325443        7.8279398818
  C         9.8821780668        1.7394561438        9.9014102593
  C         8.7513654729        4.9168580640        9.0445080369
  C         7.9032941271        4.2371502111       11.0284485213
  C         9.2522174971        4.5456607969        7.7941232234
  C         9.6936324375        2.5291398250        6.6749637644
  H         9.3567343348        1.4225489253       10.8591603545
  H        10.1613091338        0.9220589961        9.3237928418
  C        11.0828179649        2.6962256635       10.2058545771
  S         8.5835876510        6.4505787037        9.8905899809
  C         8.0240836740        5.5494847251       11.2147915852
  H         7.5428583929        3.4833555121       11.6701720149
  C         9.7479524874        5.1943196316        6.6866828741
  H         9.6900266691        1.4614754193        6.6867820457
  C        10.0725593076        3.1922349259        5.5538220452
  H        10.8573518819        3.5619103617       10.6537154197
  H        11.5448392061        2.8688917618        9.2696173332
  C        12.1239386576        2.1281914890       11.1774575349
  C         7.6855805294        6.2062838848       12.5236537305
  C        10.0413399267        4.5579319241        5.4838604847
  H         9.7413759601        6.2575414198        6.6147683466
  C        10.4783564282        2.8239202027        4.2448752731
  H        12.9988315665        2.7501492055       11.0778902628
  H        12.3792885066        1.1176632402       10.8511180262
  C        11.6413223682        2.0506889729       12.6291622561
  C         7.6926752810        7.5826219258       12.8193870799
  C         7.1442189997        5.3828745759       13.6483740686
  C        10.4389223756        5.2304348897        4.2388987356
  C        10.8422656826        3.9443505131        3.5234103543
  S        10.7077764848        1.3714890058        3.3380563426
  H        11.0777872577        2.9881043943       12.9542521260
  H        10.9465736447        1.2698424497       12.5760508232
  C        12.8384922029        1.8895968419       13.6607117223
  N         8.0735923596        8.5044706008       11.8510866077
  C         7.3920391352        8.1044171648       14.0793324561
  C         6.9642951624        5.9087094998       14.9743945589
  H         7.0965431440        4.3420548512       13.6236063883
  C        11.7518585981        6.0298935392        4.3970165127
  C         9.3702187912        5.9906910557        3.4439237145
  C        11.3979739206        3.6232794712        2.3340918063
  C        11.3462749202        2.3030907056        2.0418034770
  H        13.3738024875        2.7738513462       13.7572067485
  H        13.5318122164        1.1578369587       13.4569075127
  C        12.3077081124        1.5109799201       15.0789630821
  S         8.0335775168        9.9382491962       12.5747662734
  N         7.4216186966        9.4637485726       14.0332778035
  C         7.1159553189        7.3585520858       15.2366042762
  H         6.6391080171        5.2470150971       15.7590165079
  H        11.5550617350        6.9186261311        5.0014860595
  H        11.9955425485        6.5492770326        3.4063372065
  C        12.9381288742        5.3388796588        5.0497045898
  H         9.0101590436        6.9276037970        3.8425769459
  H         9.9256193404        6.1531993333        2.4889477934
  C         8.1205282642        5.0874551878        3.1608868763
  H        11.6357717773        4.5536765273        1.7466460256
  C        11.7053776758        1.6563469007        0.7494413475
  H        11.7369589718        2.2848308487       15.5168587353
  H        11.7290385061        0.5853091411       15.1680257649
  C        13.4468421842        1.4857074414       16.0618039681
  C         6.8318888901        8.0960074444       16.4446158745
  H        12.6399416750        4.9017707562        5.9980014869
  H        13.2706445220        4.5977174127        4.3487748330
  C        14.0553701199        6.3875199790        5.2402628232
  H         7.5923729873        4.8023311491        4.0990960301
  H         8.4580728187        4.1114022693        2.7738627912
  C         7.1042750077        5.6388562011        2.1104347579
  C        11.7845118581        0.2551962836        0.5512724853
  C        11.8256595532        2.4044707252       -0.5182592115
  H        14.3112626724        1.8353753899       15.5323769254
  H        13.6117281120        0.4112231661       16.2542918759
  C        13.1786490330        2.1993554432       17.3504300362
  H         7.0648217496        9.1218220464       16.4517852757
  C         6.4470009107        7.6848989698       17.6963431811
  H        13.9132601860        7.1775300648        5.9861018586
  H        14.0481259986        6.8444938062        4.2860409697
  C        15.3106645450        5.6114079949        5.4572787882
  H         7.5931841666        6.1789059471        1.2952803702
  H         6.3773875650        4.8620311799        1.7971818295
  C         6.1039973453        6.6187685607        2.7535797314
  N        11.5030188544       -0.6448857796        1.5450999642
  C        12.0020530785       -0.3374908600       -0.6527612844
  C        12.2402376876        1.8503122065       -1.7300785558
  H        11.6593877188        3.4789059265       -0.5614068006
  H        13.3413320200        3.2607578033       17.3595361112
  H        13.5780659321        1.8316332725       18.2664485052
  H        12.1663995115        2.0948910042       17.5344498511
  S         6.2258408472        6.0065759076       18.1626173374
  C         6.2359765151        8.7242226571       18.7260855449
  H        15.2662580640        4.6161376434        4.9402844781
  H        16.1543195724        6.2773505811        5.0016552709
  C        15.5779157050        5.2375977014        6.9168284816
  H         6.7189507458        7.3658801821        3.3026954868
  H         5.4961640979        6.0562200541        3.3911848190
  C         5.2637015552        7.3689008145        1.6669083118
  S        11.5049273563       -2.1982666247        0.9151744916
  N        11.7885452188       -1.7162444073       -0.6186268576
  C        12.3726901489        0.3850503819       -1.8192676780
  H        12.4542966388        2.5299716386       -2.5206258592
  C         5.9439416061        6.6416434470       19.7739608391
  N         5.9321812437        7.9782694908       19.8550730948
  O         6.2802281626        9.9815100564       18.6399998263
  H        15.5681113840        6.1021819528        7.4946570194
  H        14.8556097422        4.4764408430        7.2848973383
  C        16.9535557149        4.6087370370        7.0982942388
  H         5.7445407267        8.0524508001        0.9399773528
  H         4.8864204369        6.5681767459        1.0780375898
  C         4.1098744871        8.1866424148        2.3775752260
  C        12.6391616469       -0.4316877591       -2.9162775335
  S         4.9556355318        5.7645884643       20.9599766638
  C         5.7757913479        8.5495129869       21.1451692587
  H        16.9320049104        4.1362078083        8.0615648932
  H        17.0864487566        3.7595700035        6.4474484406
  C        18.0264230982        5.6992528693        7.0361887184
  H         4.4773852594        8.4513092821        3.4199507501
  H         3.2913475255        7.4875000294        2.5045521933
  C         3.7428723290        9.5095372561        1.6224594099
  H        12.2788334278       -1.4022515026       -2.9192569124
  C        13.2126054124       -0.1312991201       -4.1243146570
  H         5.0517583953        8.1371467821       21.7661972753
  H         5.3548208388        9.5815992204       21.0247329861
  C         7.1780221566        8.7442634986       21.7813285164
  H        18.3883737964        5.7173620794        7.9906079147
  H        17.5267047590        6.6802610732        6.8900801726
  C        19.1726821896        5.5053382436        6.0532219814
  H         2.9684275980       10.1021217000        2.1316914798
  H         4.5552151393       10.1759695132        1.5517354070
  C         3.1869357810        9.1317189836        0.2881669500
  S        13.7939749781        1.3505637040       -4.6161057796
  C        13.2787174829       -1.2085057641       -5.2196306728
  H         7.8666595111        9.5574421526       21.3550898412
  H         7.8018948373        7.8565451483       21.7666696260
  H         7.0836849673        8.9853283209       22.8710269742
  H        18.9345173399        6.0356300722        5.0995484390
  H        20.0754314721        5.8291275537        6.4999495063
  H        19.2499557469        4.4466748150        5.8395279778
  H         2.7614986442        9.9446356390       -0.3126013977
  H         3.9873122262        8.6891223001       -0.3025126259
  H         2.4571431792        8.2924086770        0.3994036738
  C        14.2130026205        0.6355809333       -6.1528692131
  N        13.7891411294       -0.6080643447       -6.3275328849
  O        12.9221971785       -2.4362336933       -5.1044314743
  S        14.9444988664        1.5327905129       -7.4386177100
  C        13.7938221907       -1.3146238906       -7.6395473144
  H        14.1591382188       -2.3048616078       -7.5110256961
  H        14.4626691108       -0.8836995036       -8.3352979060
  C        12.2778492861       -1.3639384691       -8.1693628404
  H        11.6002421121       -1.7082859229       -7.4217756048
  H        12.3035765670       -1.9207218434       -9.1442556141
  H        11.9133211172       -0.3336380179       -8.5333091987
