352
 i =    17900, time =     8950.000, E =       104.1988907292
  H         9.6508141057        5.0640875184       31.6854052257
  C        10.2535329252        5.9433854172       31.9122875188
  H         9.6978831249        6.8758741965       31.5912807832
  C        11.4683436963        5.9535370051       31.1432883673
  C        10.4369991947        6.0524165925       33.4306204641
  C        11.4465935626        5.2884227848       29.7144842230
  H        11.8356153717        7.0062854196       31.1001076322
  H        12.3954268585        5.6083270036       31.6862560045
  H        11.2017077111        6.7344505477       33.7261164133
  H         9.4912358562        6.4964707501       33.7995941842
  H        10.6496848571        5.0526225138       33.8033553221
  C        10.6680466088        6.1740153119       28.7190153353
  H        10.9662282606        4.3227057667       29.8295006091
  H        12.3841113055        5.0574557322       29.2017077255
  C        10.9622301297        5.8723597416       27.2187668564
  H         9.6272154479        5.8665389477       28.8683353206
  H        10.7217634989        7.1793512473       29.0416998120
  C         9.9167982325        5.0291630529       26.5415271959
  H        11.9125324603        5.4766683543       27.1109152522
  H        11.0852742981        6.8205802724       26.7135372693
  C         8.6285120938        5.7672999413       26.2258019051
  H        10.4432131232        4.5505510576       25.6810927679
  H         9.5870985282        4.2347213488       27.1689641822
  C         7.5400632210        4.9935238300       25.4459256029
  H         8.2376550767        6.2076013648       27.1427595513
  H         8.9247657073        6.6479545156       25.6868312299
  C         7.2065417103        3.6654336392       26.0933131590
  C         8.0118788374        4.3355182910       24.2072976802
  C         6.3107562887        5.7989993980       25.3094266328
  C         7.4712942027        2.5582305867       25.2812074481
  C         6.5868925305        3.2667185586       27.2925273167
  C         7.9989103593        2.9817529847       24.0903558186
  C         8.4084678534        4.9816563631       23.0308130255
  H         6.5099417799        6.7576829463       24.9102201182
  H         5.9187039293        5.9526179443       26.2980767225
  C         5.2130690458        5.1259835413       24.4386921406
  S         7.0794978239        1.0761742119       25.9494347869
  C         6.4782779038        1.8992415966       27.3706341229
  H         6.2775930305        4.0177665194       28.0211458206
  C         8.3591543667        2.3863521289       22.9320010412
  H         8.4159304116        6.0356385211       22.9321871591
  C         8.8013578573        4.3792760724       21.8680986986
  H         5.6477809299        4.7283171753       23.5357154202
  H         4.8703707508        4.1388404942       24.8555561839
  C         4.0004201939        5.9223150169       24.1368613783
  C         6.0445971819        1.2114473817       28.6192159483
  C         8.8084811478        3.0173528595       21.7572840334
  H         8.0946740394        1.2702318870       22.8501056734
  C         9.1486793798        4.7761373742       20.5547173703
  H         3.3173838512        5.2763118138       23.5828331021
  H         4.2060336764        6.7899261124       23.5479245849
  C         3.2291855262        6.3726718938       25.3525716130
  C         5.9557970761       -0.1977203120       28.8092938593
  C         5.4957327810        2.0023991446       29.7537385426
  C         9.2404089699        2.3407233024       20.4239757462
  C         9.3360104157        3.6903657548       19.6827737964
  S         9.3222019559        6.2857270686       19.8029397605
  H         2.4681141020        7.0880834426       25.0406573926
  H         3.8061950716        6.8534207880       26.1372359121
  C         2.6094563464        5.2474078384       26.1380522764
  N         6.2357796653       -1.1708697396       27.8480940959
  C         5.6644705856       -0.7929632723       30.0309623889
  C         5.1281078678        1.4034656523       30.9551658794
  H         5.5858517398        3.0643792563       29.7383314823
  C         8.0549096774        1.5181123825       19.8198243340
  C        10.6265854972        1.5611543077       20.4915264495
  C         9.7138427762        4.1443706608       18.3932272771
  C         9.6750346667        5.5111004019       18.2881456038
  H         2.0174684969        4.5981790998       25.4306310146
  H         3.3335097836        4.5546409504       26.4996075072
  C         1.6826820345        5.9527772778       27.2310461819
  S         6.1023541850       -2.6828870303       28.5282771050
  N         5.7509646847       -2.2229828744       30.0214520983
  C         5.2787599532       -0.0165432584       31.1407980747
  H         4.9954580900        2.1247357311       31.7887125973
  H         7.6975314762        0.8895036045       20.7005873251
  H         8.4691757892        0.8974999280       19.0947418197
  C         6.9676826205        2.3751991715       19.1520890826
  H        10.9563123196        1.1009580289       19.6063061076
  H        10.4918755808        0.6919971909       21.1870777657
  C        11.8214252052        2.4177041758       20.9491565182
  H         9.9208013365        3.4419755892       17.6025324199
  C         9.8727513930        6.2345586042       16.9883021728
  H         1.0527878443        6.8018655698       26.8455752472
  H         2.3644218706        6.4685944818       27.9692789497
  C         0.9938387590        4.8416526251       28.0178086119
  C         5.0372599341       -0.6472735082       32.3821100104
  H         7.2384177834        2.8651405450       18.1885083751
  H         6.6526892544        3.2002517344       19.8313051154
  C         5.6871209340        1.5206386675       18.7654317509
  H        11.4987550145        2.9602740814       21.8185265463
  H        12.1690856995        3.1592795783       20.2563034065
  C        13.0246282937        1.5338382992       21.2623919030
  C         9.9615798040        7.6455915330       16.8645013917
  C         9.9633328172        5.4390308305       15.6664712445
  H         0.0036042017        4.6631285447       27.5738374860
  H         1.6592920517        3.9831630110       27.9413019318
  C         0.8494778371        5.3752529776       29.5101832338
  H         5.2956140680       -1.7447434887       32.3951398087
  C         4.8038704084       -0.2001105434       33.6081014037
  H         5.1874630582        1.1965591955       19.7171984679
  H         5.9134997481        0.6228809879       18.1983188711
  C         4.6654500374        2.4246356357       18.0250793123
  H        12.5290479165        0.7686988040       21.9521257275
  H        13.4185054022        1.1250016788       20.2871870376
  C        14.2687852941        2.1470018276       21.8198339985
  N         9.7682030744        8.5645628927       17.9230075519
  C        10.2231761659        8.2431456305       15.6518222885
  C        10.1090100609        6.1373214597       14.4836426688
  H         9.8867052340        4.3913698898       15.5921357247
  H         0.3343355484        4.7145078744       30.1454881792
  H         1.7755551245        5.6678157328       29.9836403788
  H         0.3561295275        6.3050552760       29.6411210618
  S         4.5270917118        1.4628350660       34.0938023759
  C         4.6735336011       -1.1237359052       34.6734502989
  H         4.7118383637        3.4091719554       18.4736802456
  H         4.7813880670        2.4903054879       16.9307316990
  C         3.2662765902        1.9190555801       18.1550590155
  H        14.1791890954        3.1834371763       21.5752067330
  H        15.0892962320        1.7522382676       21.2079148037
  C        14.5442348627        2.0012189477       23.2890471357
  S         9.9837267886       10.0224616347       17.2545031843
  N        10.3936522108        9.6330242706       15.7669593256
  C        10.3143764878        7.5971138373       14.3935814167
  H        10.1339037449        5.5499395607       13.5406304590
  C         4.3384109391        0.7841214727       35.7295640379
  N         4.3072877803       -0.5448618882       35.7931443577
  O         4.7749903485       -2.3163749864       34.4136007602
  H         2.6465583617        2.6246126872       17.4896896746
  H         2.8276633026        1.9419887216       19.1978441835
  C         3.0956226564        0.4350712175       17.5130775538
  H        13.7011904083        2.1683051572       23.9046049703
  H        14.7177077559        0.9952461074       23.6508699952
  C        15.5324947924        3.0536116880       23.7091440427
  C        10.7175529594        8.3214999142       13.2502309550
  S         3.7266355498        1.6427999500       37.1206183653
  C         4.2442982386       -1.3017982825       37.0716743913
  H         2.7213217965        0.5536949628       16.4987181690
  H         4.0298363773       -0.0201716348       17.2987084683
  C         2.2464246013       -0.6004895558       18.2381709739
  H        15.1771648759        3.4011075943       24.7810503961
  H        15.5265243948        3.9517710883       23.1270876972
  C        16.9150836324        2.3188664224       23.8091848964
  H        10.3602073341        9.3790925348       13.2689373677
  C        11.2770357315        7.9352110524       12.1172729989
  H         3.3844241489       -1.0080683328       37.6766984036
  H         4.0421699735       -2.3929085149       36.8936606601
  C         5.6140302412       -1.2422786475       37.7711807347
  H         1.2632310866       -0.1004783419       18.3826008384
  H         2.5538001626       -0.7538363527       19.3103585767
  C         2.1505139529       -1.9321246623       17.4682277374
  H        17.5714587744        2.7907454052       24.5197708669
  H        16.7066051262        1.3460880862       24.2700805453
  C        17.8021667370        2.1422735086       22.6182757047
  S        12.1448386873        6.3789738954       11.6976565007
  C        11.3435019193        8.9719737381       11.0619101972
  H         6.2903523169       -1.7139070299       37.0208996271
  H         5.9301199788       -0.2583622640       38.0608594413
  H         5.5820575247       -1.9347525647       38.6681002584
  H         1.4560028673       -2.6107227648       18.0018939485
  H         3.1223188825       -2.4460732822       17.3565157825
  H         1.6914751042       -1.8575986450       16.5151609689
  H        18.7754068764        1.8268964162       22.8935736997
  H        17.8958842178        3.1178059837       22.2908391423
  H        17.3942226123        1.5542713293       21.8418426786
  C        12.3270695107        7.0895476380       10.1108924599
  N        11.9976254090        8.4007782821       10.0363408848
  O        10.7999240881       10.0644836462       11.0284211016
  S        13.2554656612        6.2733098575        8.8151599192
  C        12.3462218880        9.1697002209        8.7764304183
  H        12.6990824002       10.1599379682        9.1840769768
  H        13.1636480407        8.7211043173        8.1172217431
  C        11.1007432599        9.3696825919        7.9575597299
  H        10.2235950377        9.0221289453        8.4637669057
  H        10.9041203218       10.4593879871        7.6637779700
  H        11.2486734043        9.0120490786        6.9342963331
  H         4.6511274868        1.4208162284       12.5350758735
  C         4.1263499342        2.4201335595       12.7731330441
  H         4.7973636772        3.2446159567       12.7272617476
  C         3.1578134035        2.6711932294       11.5856169734
  C         3.4381901489        2.4361619188       14.1273427374
  C         3.8858334789        2.8853388310       10.2356383188
  H         2.4659176761        3.4981299319       11.7825484360
  H         2.5334422879        1.8047289501       11.3725875333
  H         3.3026153880        1.4542138918       14.5174484742
  H         2.4336456550        2.8176978862       14.0132872388
  H         4.1603618765        2.9107058081       14.7980493883
  C         4.4041230704        1.6701907389        9.5516676126
  H         3.1370043030        3.4650418415        9.5795851684
  H         4.7481844313        3.5557828016       10.3139050051
  C         5.1559818494        1.9313070659        8.2622747739
  H         3.5772456102        0.9262092095        9.4785517534
  H         5.0354238548        1.1325578638       10.3374525389
  C         6.4728737345        2.6551653987        8.3534544241
  H         4.6400917962        2.5830080609        7.6021878376
  H         5.2838752778        0.9936003576        7.7695850219
  C         7.7082085648        1.8875385630        8.9558162890
  H         6.6767070606        2.9563459609        7.2877925074
  H         6.3158786761        3.6768272693        8.7755090535
  C         8.9810821350        2.7874506216        9.2858730720
  H         7.9453003633        1.0868405133        8.2112158096
  H         7.4176617180        1.4265242223        9.9242184407
  C         8.5847742622        4.0919213475        9.9127956898
  C         9.4517685074        3.5154246016        8.0413848671
  C        10.0595911547        2.1228565814       10.1431176970
  C         8.8093657777        5.2363850063        9.1669384502
  C         7.9990132126        4.4391107798       11.1100389386
  C         9.3491159928        4.8728653376        7.9799250913
  C         9.8287810276        2.9378913257        6.8274751326
  H         9.6875899565        1.4546635621       10.9161704803
  H        10.5834176650        1.4372468515        9.4843982690
  C        11.1017609294        3.1110569808       10.7775677434
  S         8.4446947073        6.7122849820        9.8820359134
  C         7.9166506423        5.8066744681       11.2095389593
  H         7.6765012823        3.6364245819       11.7851490396
  C         9.7766993202        5.4622283326        6.8803693334
  H         9.7870764331        1.8518837665        6.7520818869
  C        10.2824273585        3.6198188830        5.7275454134
  H        10.4827632303        3.8100092227       11.3460586443
  H        11.5648579173        3.7360018895        9.9651146673
  C        12.2143893301        2.4426032130       11.6058036920
  C         7.4265788985        6.5049310271       12.4479287627
  C        10.2185960119        4.9433962297        5.6690885062
  H         9.7802440392        6.5403289229        6.9171145346
  C        10.7124471661        3.3422698894        4.5018503245
  H        13.1481233986        3.0133093901       11.5850007259
  H        12.3608687485        1.4473721834       11.1551548910
  C        11.8066785996        2.1182611922       13.0841205468
  C         7.4429618809        7.9016061165       12.6818766514
  C         6.8992398554        5.6634274401       13.5630928788
  C        10.5282553692        5.7682593933        4.4236681700
  C        10.8235599186        4.4378224850        3.6715433978
  S        11.0767499396        1.8829139194        3.7674720578
  H        11.2876712430        2.9695345695       13.4281895202
  H        11.1370471185        1.2693485044       13.1001170982
  C        12.9871788223        1.7496599300       13.9960389529
  N         7.8448013386        8.8417129191       11.7881147475
  C         7.1251057758        8.4406706417       13.9347895752
  C         6.5450708122        6.1744168205       14.7803723833
  H         6.8612975355        4.5837023593       13.4775045653
  C        11.8685944091        6.5180074596        4.5309400926
  C         9.4473034451        6.6646877016        3.7028318529
  C        11.2978009078        4.0640723732        2.3448651824
  C        11.3504261207        2.6603779151        2.2472767482
  H        13.6458085257        2.6233322911       14.1464556537
  H        13.6947301026        1.1774929738       13.4251421436
  C        12.6145400266        1.0109837665       15.2565667594
  S         7.7698738612       10.3164123283       12.4454376339
  N         7.3307506189        9.8048058412       13.9347884395
  C         6.7047416504        7.6493598683       14.9830567236
  H         6.1382002992        5.6419019271       15.6121696452
  H        11.7847352543        7.1773915087        5.4037879706
  H        12.1355740194        7.1625404263        3.7036808680
  C        13.1951789007        5.7099910221        4.7897579495
  H         8.9285536226        7.2710979643        4.5225662005
  H         9.8110262067        7.3771690045        2.9584542527
  C         8.2901937039        5.8059766421        3.1496487170
  H        11.4698273694        4.9023639874        1.6465710742
  C        11.6092870553        1.8986342447        0.9577171624
  H        11.8617772086        0.2945034609       15.1538398227
  H        13.5195968644        0.5224309065       15.5456993053
  C        12.1376583861        1.9636129341       16.3371891164
  C         6.5443441673        8.3657693327       16.2818032770
  H        13.1811455890        5.3018871911        5.7972517239
  H        13.2825176537        4.8066509104        4.1672706611
  C        14.5669138364        6.4610682442        4.6631100118
  H         7.9276956594        5.0658867947        3.8944154326
  H         8.5707144606        5.2249807425        2.2763096319
  C         7.0734524104        6.5811418209        2.5375874149
  C        11.5814450658        0.4913260490        0.8296732221
  C        11.6609602129        2.6610796375       -0.3015503998
  H        11.5517664229        1.3201281916       17.0688964992
  H        11.5510941828        2.7637719630       15.9110491384
  C        13.2856651083        2.4756556286       17.2007554134
  H         6.4805402696        9.4777081789       16.2503335030
  C         6.2953413598        7.9198561009       17.5803772322
  H        14.4676991993        7.3836476482        5.0996940374
  H        14.8676610462        6.7163922589        3.6445581901
  C        15.8676163323        5.8617108158        5.2946635869
  H         6.7650897648        7.4455394330        3.1912470836
  H         7.4121661115        6.9985322462        1.5294122973
  C         6.0414028196        5.5138006282        2.2666112123
  N        11.4953458982       -0.4230117835        1.9101554817
  C        11.9472040790       -0.1592857737       -0.2894969120
  C        11.9823762385        2.0476010999       -1.4916260031
  H        11.5704379876        3.7308866729       -0.2382944412
  H        14.0250271735        2.9073196650       16.4652111734
  H        13.8089930710        1.7546007720       17.8033876840
  H        13.0062303318        3.2645691143       17.8892523237
  S         6.1079828955        6.2953217750       18.0734280540
  C         6.3770304911        8.8872640436       18.6494962783
  H        16.0153933300        4.8525748551        4.9514269636
  H        16.7504390015        6.2390430313        4.7709120741
  C        16.0724987082        5.9808109597        6.6950926832
  H         5.6470717705        5.0186313091        3.1733759046
  H         6.4563882868        4.7720504418        1.6119808395
  C         4.8167338565        5.9983939371        1.4681211321
  S        11.6603615769       -1.9420668548        1.3719448663
  N        12.0137175668       -1.5647362358       -0.2170854155
  C        12.1198271642        0.4707254409       -1.5768360712
  H        11.9029539896        2.7141761655       -2.3780055610
  C         5.9247754104        6.9610996686       19.6914180138
  N         6.1042118193        8.2619566452       19.7848042853
  O         6.4520270433       10.0904965035       18.4999025108
  H        16.3584601014        7.0549653051        6.8984703092
  H        15.1747317347        5.8429403451        7.2506162786
  C        17.3007755743        5.1983476752        7.2024593227
  H         5.2007165224        6.1802226554        0.4610632859
  H         4.0441269434        5.2074458883        1.3380402054
  C         4.1242676603        7.2403769716        2.0570129095
  C        12.4268548401       -0.2808167842       -2.7306508961
  S         5.3691253936        6.0681203145       21.0222402181
  C         6.1138825637        8.9736509629       21.0211660364
  H        16.9659959473        4.6910452163        8.1313697529
  H        17.4916508025        4.3935029136        6.5519556396
  C        18.5013427452        5.9729457999        7.7501098975
  H         4.4907651436        7.4767606243        3.0988729222
  H         3.0866627419        7.0750854665        2.1527141635
  C         4.3777944676        8.4708655958        1.0939889911
  H        12.1379886073       -1.3281093636       -2.7169096587
  C        12.9725059439        0.0091586957       -3.9410876301
  H         5.3848036494        8.5570787095       21.6174008059
  H         5.8073860141        9.9783113739       21.0508914359
  C         7.5036945756        8.9127499075       21.7015142120
  H        19.0407571342        5.2414312622        8.3927924168
  H        18.0840677921        6.6824829484        8.3422512770
  C        19.3525202465        6.3492243702        6.5488198393
  H         5.4106395103        8.5398492431        0.9428414760
  H         4.0259281898        8.3029335092        0.0367447244
  C         3.7720932209        9.7189927184        1.6099421328
  S        13.5255379248        1.5126383410       -4.5250611087
  C        13.1566971235       -1.1538601772       -4.8236951561
  H         7.3434323092        8.2896052763       22.5899928877
  H         7.8482152402        9.8418486723       22.1555048085
  H         8.1858390102        8.4420004257       21.0692687444
  H        19.5903997088        5.4972744768        5.9224046179
  H        18.8392423491        7.0638055961        5.9644254061
  H        20.2954623551        6.7317056128        6.7835990913
  H         2.7152079665        9.7561010161        1.5309849196
  H         4.1059090903        9.8560650695        2.6538036584
  H         4.1747750696       10.6450173438        1.0851660463
  C        14.2365114978        0.5450526600       -5.8967215480
  N        13.8518011594       -0.7534298435       -5.8881385604
  O        12.7635932276       -2.2917448895       -4.6571668016
  S        14.8312064121        1.2152843147       -7.4186159127
  C        13.7881376757       -1.6150905808       -7.0658038058
  H        13.9088342404       -2.6130933383       -6.9014450751
  H        14.6359019678       -1.3655711475       -7.7635799009
  C        12.4349819182       -1.4877076018       -7.8071021677
  H        11.5883953423       -1.1259239507       -7.2684390228
  H        12.1444429345       -2.4830682605       -8.2323833109
  H        12.5280644124       -0.8887589314       -8.6770496015
