352
 i =     1400, time =      700.000, E =       211.5737585686
  H        11.4712009939        7.1642957337       32.5794003335
  C        11.3278819380        6.0693750425       32.5276758095
  H        12.3907473004        5.7015894719       32.4339279859
  C        10.4927380515        5.6144992919       31.4272566486
  C        10.7769837574        5.5917189218       33.8406923910
  C        10.6907320507        6.3138212051       30.0573900572
  H        10.6618777417        4.6599523680       31.0751694964
  H         9.3734789216        5.7649989167       31.7530201181
  H        11.4420045474        5.8739760764       34.4949687233
  H         9.8850126400        6.1446982103       33.8688904548
  H        10.5790092427        4.6327739086       33.8003937834
  C         9.7846347626        5.7209740557       29.0345058568
  H        11.6374164546        6.2068474575       29.7168001981
  H        10.6156645054        7.3066156761       30.1305449683
  C        10.4540966502        5.7398426989       27.6907090974
  H         9.4311504236        4.7699769936       29.4993987126
  H         8.8575627215        6.2797790693       29.0733112773
  C         9.5648548623        5.0984747833       26.6752031382
  H        11.3558188887        5.2900587450       27.7372434669
  H        10.7033890347        6.6670426564       27.3618165002
  C         8.2275963892        5.9578822241       26.2552923247
  H        10.1003889128        4.9000194386       25.7953459898
  H         9.1754918080        4.1866127008       27.0345988277
  C         7.1946805709        5.2081164322       25.4576931452
  H         7.8209229909        6.4843147125       27.1469873620
  H         8.7366131176        6.7172520926       25.7923693009
  C         6.8828825031        3.9029915304       26.1996451171
  C         7.7732750423        4.4049590020       24.2014584878
  C         5.9246048950        6.1216725988       25.1478750254
  C         7.1724256533        2.7889703743       25.4141868883
  C         6.2936735515        3.5287064606       27.4204834851
  C         7.6754660456        3.0999013909       24.1445663050
  C         8.1611741340        5.0838695822       23.0240121141
  H         6.0226706938        6.9941247337       24.5336283435
  H         5.7185195798        6.6005530411       26.1967122455
  C         4.7781956626        5.4413624288       24.5617496482
  S         6.8114194945        1.3542319475       26.1868890018
  C         6.2488809834        2.1800975694       27.5757182765
  H         5.9486914436        4.2966545794       28.0092786100
  C         8.1035519346        2.3786170109       23.0522672032
  H         8.1120487088        6.1357423318       22.9065721679
  C         8.4567562201        4.3929376768       21.8755808862
  H         5.0566306760        5.0481580643       23.5408132528
  H         4.4530276299        4.5974311904       25.1100674380
  C         3.4831074098        6.4148094186       24.4933700025
  C         5.7922591450        1.4484024318       28.8187614859
  C         8.4852700464        3.0544044299       21.8743398889
  H         8.2649040805        1.3875567066       23.1179036491
  C         8.8303615475        4.8663192821       20.6000916361
  H         2.8126412308        6.1193913483       23.6862983388
  H         3.7032678299        7.4416062316       24.2887112251
  C         2.7518398813        6.5756531007       25.8673102450
  C         5.8845966240        0.0530377935       28.9829394920
  C         5.5545577631        2.3039435691       29.9525429409
  C         9.0093728846        2.3547550377       20.5840662238
  C         9.3208245804        3.7706804793       19.8776453576
  S         9.1355832034        6.3443167291       19.9060999127
  H         1.9999341350        7.3200773398       25.9636063797
  H         3.5556491394        6.8959806002       26.5526363443
  C         1.9268333963        5.3184545571       26.4293180749
  N         6.0971888963       -0.8566111005       27.9859374160
  C         5.5811967320       -0.5723838407       30.1378699615
  C         5.2478330145        1.6987099770       31.1933075942
  H         5.4904173921        3.3936163015       29.7998397012
  C         8.0204413089        1.5913937994       19.7767914136
  C        10.2935730717        1.6109815036       20.8200363830
  C         9.8116042919        4.1242438975       18.6551263780
  C         9.7318213005        5.4814483549       18.5489579014
  H         1.0781818260        5.1882863538       25.7020933247
  H         2.4809844325        4.4015104584       26.2879465827
  C         1.1538641259        5.4392072795       27.6750498294
  S         6.0509318490       -2.4316767841       28.5478042770
  N         5.5955548268       -1.9874021436       30.0804000074
  C         5.3193624517        0.2159231331       31.3142912515
  H         4.8311479933        2.1545162455       32.0854635293
  H         7.5292175863        0.6900279913       20.3081814529
  H         8.6175965219        1.0842064882       19.0032284679
  C         6.6966802794        2.3264425224       19.3427487302
  H        10.8573659507        1.2063634624       20.0033854828
  H         9.9779192250        0.5989812057       21.2260590184
  C        11.1366312363        2.3908331703       21.7377464776
  H        10.1978177054        3.3069408024       17.9992042161
  C        10.1593547291        6.2524478641       17.2851849086
  H         0.4863386188        4.5929648709       27.7504053834
  H         0.5140763214        6.2619628159       27.5611038935
  C         1.9351988334        5.4127097335       29.0437150215
  C         5.0215265383       -0.4665756618       32.5544667350
  H         7.0726699327        3.1376272338       18.7537225401
  H         6.0979963366        2.7516869592       20.1509720677
  C         5.8085561121        1.4454145388       18.3843067184
  H        10.8055346276        2.6554245257       22.6902071589
  H        11.2116485566        3.3228294163       21.3095888446
  C        12.5202704058        1.8153669445       21.7584211959
  C        10.2096771125        7.6800379105       17.1012472572
  C        10.2161681669        5.5254147465       16.0282622422
  H         2.5427590888        4.4645893766       28.9172856150
  H         2.5750168101        6.3652162359       28.9747678614
  C         0.8857767019        5.4128867203       30.1439570614
  H         5.2197733917       -1.5064189905       32.5748681161
  C         4.7635386070       -0.0555707327       33.8560592695
  H         5.4673199710        0.5282665736       19.0170781759
  H         6.6063697085        0.9784715664       17.8333000921
  C         4.7023113907        2.1331328931       17.7089372948
  H        12.4708787878        0.8978215720       22.2445981260
  H        12.8422712657        1.6570557644       20.8278917565
  C        13.6708782202        2.6543295900       22.2213018674
  N         9.9774436802        8.6050116514       18.1097701952
  C        10.4302682853        8.3132017526       15.9216685201
  C        10.5330489088        6.1277249288       14.7754890131
  H        10.1423164448        4.4643104254       16.1225541783
  H         1.4057197563        5.6082127113       31.0767207251
  H         0.1820040252        6.2021561250       30.0225316280
  H         0.3558704423        4.4436526113       30.2247802290
  S         4.4187686360        1.5960199031       34.3776447468
  C         4.5831230907       -1.0871534166       34.8782428477
  H         4.7594954327        3.1695073463       17.7949837701
  H         4.9312941527        1.9932684823       16.6520231956
  C         3.2502342016        1.5830487931       18.0230763736
  H        13.4231070409        3.4584302319       22.8610283989
  H        14.1061840687        3.2310417379       21.3525556683
  C        14.8010097080        1.7299848411       22.6743590994
  S         9.8715833753       10.1211713138       17.4335817311
  N        10.4791171512        9.6563980818       15.9765236802
  C        10.6528303116        7.5751604012       14.7194043171
  H        10.5533558669        5.6761986635       13.8325748812
  C         4.0690539121        0.8472716195       35.9869087438
  N         4.0938305175       -0.4687687091       35.9890653939
  O         4.6223428231       -2.2994349542       34.6290955376
  H         2.5133315046        2.3384937066       17.5929910224
  H         3.1669510702        1.4964681251       19.0506802534
  C         3.1483905397        0.1890836498       17.3246057493
  H        14.5399888678        1.0085066087       23.4506802717
  H        15.0812328497        1.0441500259       21.8081901125
  C        15.9991227453        2.5683429238       23.0313642199
  C        10.8195881049        8.3429213652       13.5846909357
  S         3.2902946678        1.6828721728       37.3731621818
  C         3.7898905832       -1.2364552369       37.2088283736
  H         3.0135719854        0.4913923095       16.3317462359
  H         4.1581644370       -0.3983667760       17.5772997637
  C         1.9102484014       -0.5539840249       17.9495999873
  H        15.6089214765        2.9189882151       23.9781230297
  H        16.0908338448        3.3588738046       22.2808726173
  C        17.3263058008        1.7966221693       23.2053268992
  H        10.6448510302        9.3668480104       13.6494483633
  C        11.4114960838        8.0458339783       12.3329259841
  H         3.0251949621       -0.6724356131       37.7056331368
  H         3.4829390738       -2.2107809919       36.8007893735
  C         4.9879106317       -1.4638110424       38.1898045448
  H         1.0976990350       -0.1355961648       17.3085119426
  H         1.6647605946       -0.1754657885       18.9083817467
  C         1.9572643268       -2.0285504713       17.5460837905
  H        18.0942820896        2.4811552300       23.8257686903
  H        17.3006958957        0.7543694663       23.8144699154
  C        18.1513530477        1.5362739388       21.8743066039
  S        12.0184179349        6.5451994602       11.7153123867
  C        11.4441674133        9.1196948744       11.2899443706
  H         4.7738320945       -0.7278505786       39.0225909889
  H         4.8380224777       -2.5673762091       38.4447885787
  H         5.9219349944       -1.2488477564       37.8541150548
  H         0.9964442278       -2.5480537081       17.8419341824
  H         2.8076427678       -2.4696442134       18.0990375732
  H         2.0635954681       -2.2826677796       16.5223828638
  H        18.1092751065        2.3991096425       21.3549736146
  H        17.6315627684        0.6370886452       21.5362303645
  H        19.1906585803        1.4265262796       22.2244886371
  C        12.4618877486        7.4069573551       10.2646717238
  N        12.1414842635        8.6692551470       10.2604296697
  O        10.9856862503       10.2296470665       11.4322651780
  S        13.0838747799        6.5413045942        8.8421236042
  C        12.2403108219        9.5139215339        9.0448294171
  H        12.5452519230       10.5232498770        9.3994018624
  H        13.1383394392        9.0790210948        8.6316919982
  C        10.9451905238        9.6594225000        8.1976758588
  H        10.0671813434        9.3171280950        8.7167006431
  H        10.7386061725       10.7022258320        7.6978004175
  H        11.0181149630        8.8330343511        7.4863408399
  H         4.5059739729        2.1429494110       12.4898461185
  C         3.6578747488        2.8569103032       12.4774545043
  H         4.2408137947        3.7695954343       12.6444703322
  C         2.7601010562        2.7896247838       11.3816869760
  C         3.0048278767        2.5063061758       13.8597981037
  C         3.5097613156        2.9546005916       10.0188127982
  H         1.9111025894        3.5763644601       11.4364022491
  H         2.0745186199        1.9167090601       11.3675246497
  H         2.6594052371        1.5595774348       13.7327693481
  H         2.1738812850        3.1242582671       13.9964243897
  H         3.6400440577        2.7684968465       14.7144026657
  C         4.2886638095        1.7428769720        9.5681100591
  H         2.7704317403        2.9548188481        9.1184984736
  H         4.2378460448        3.8069175085       10.0837145771
  C         5.2338640284        1.9583415251        8.3800073895
  H         3.5778700812        1.0568358493        9.0960544755
  H         4.8889010401        1.2998225765       10.3893597334
  C         6.4993992184        2.8592527107        8.4462733238
  H         4.6525251924        2.1926356002        7.5519825231
  H         5.5280819479        0.9625614328        8.2578238199
  C         7.7039310251        2.1422293635        9.1814375830
  H         6.7447799429        3.3243341026        7.4372207808
  H         6.2531820480        3.6671428360        8.9879510166
  C         8.9229538988        2.9395251013        9.3116137212
  H         7.8405539469        1.2028955368        8.7649192539
  H         7.1583828051        2.0275614715       10.1019767390
  C         8.7485390844        4.2855401458        9.9783665558
  C         9.4389248329        3.5696865253        8.0032009903
  C         9.9957889765        2.0479934725       10.0865450267
  C         9.2212287763        5.3484382028        9.2151713692
  C         8.2162110666        4.7133693530       11.2282497365
  C         9.5562182654        4.9127784480        7.8805389080
  C         9.6762436743        2.8616875005        6.8682577382
  H         9.4784424203        1.6556215060       10.9254794097
  H        10.3128151265        1.1120435357        9.4659377102
  C        11.2739768251        2.8173658386       10.4360072028
  S         9.0672677806        6.8567514197       10.0022855823
  C         8.2574150784        6.1118227412       11.3432895363
  H         7.8979988685        3.8740116298       11.9541558352
  C        10.0101674878        5.5114508622        6.7660812168
  H         9.6948897740        1.8173879736        6.9502904591
  C        10.1695413903        3.4499075731        5.7149582035
  H        10.9804577534        3.7873476070       10.8248313923
  H        11.7291145651        3.2250981479        9.4466852694
  C        12.2826222176        2.1437797858       11.3047962550
  C         7.7121591170        6.8268545442       12.5754252079
  C        10.3325701267        4.7943104825        5.5882049954
  H        10.1731182648        6.4940756856        6.8423138346
  C        10.6187954152        2.9796906928        4.4958923069
  H        13.0911978771        2.6452372982       11.4484217045
  H        12.6218973961        1.2647629058       10.8904723223
  C        11.6122986554        1.9003928205       12.6910812453
  C         7.6669085726        8.2071665439       12.8398316747
  C         7.3296047421        5.9769718248       13.6988930191
  C        10.8322471781        5.4650058438        4.3828360256
  C        11.0190187453        4.0449389614        3.6585509970
  S        10.9458023910        1.4906514765        3.7436987807
  H        11.0242527381        2.7515197199       12.8649065720
  H        11.0035091954        1.1459509954       12.4719977094
  C        12.4779709223        1.5870786628       13.8255492453
  N         8.0521544854        9.1411115688       11.8720625031
  C         7.2913997464        8.8461097610       13.9699380785
  C         7.0046014026        6.6013598497       14.9453465143
  H         7.5305606837        4.9244843569       13.6163110579
  C        12.1540169273        6.1788915320        4.5214401870
  C         9.8024342665        6.3219748842        3.4985451789
  C        11.4903373627        3.6045986074        2.4043019899
  C        11.4263486147        2.3357889460        2.2560295972
  H        13.4411493378        1.9805230686       13.5596946769
  H        12.6767529289        0.5459100877       13.9939436438
  C        12.1971367648        2.2220761967       15.1997701474
  S         7.9695528165       10.7145401269       12.4841961451
  N         7.4308840568       10.2604506293       13.9762357286
  C         7.0047951356        8.1099661352       15.1151724926
  H         6.6790785701        6.0798419633       15.7716339366
  H        12.1157368886        6.9210630149        5.3026898908
  H        12.5248007203        6.5525855165        3.7161238098
  C        13.2699198722        5.2844645172        5.0789115158
  H         9.3102246383        7.0120187057        4.0720396240
  H        10.3571087004        6.8585023000        2.7804565785
  C         8.7209587050        5.5122998198        2.7158217111
  H        11.7903910925        4.3637264342        1.7091362618
  C        11.7530329764        1.5410196408        1.0796828198
  H        12.0432391784        3.3051956423       14.9859412650
  H        11.2268106888        1.7204869655       15.5030008552
  C        13.3562386879        2.1226544004       16.2302545774
  C         6.7209237632        8.8109536477       16.3435370239
  H        13.0259588494        4.8325230614        5.8786325868
  H        13.5034257326        4.5443228422        4.3444921220
  C        14.5164638857        6.1778740186        5.3033047177
  H         8.3404812704        4.7827302027        3.3971259765
  H         9.2660371102        4.8698940402        2.0388671729
  C         7.5636405185        6.3711831079        2.2065439453
  C        11.7879208002        0.1167712911        0.8507837997
  C        11.9753750321        2.3975668277       -0.1542252981
  H        14.2638320805        2.4857314018       15.9100544868
  H        13.4640316347        1.1450675776       16.5008361593
  C        12.8896415267        2.8251678588       17.5133355864
  H         6.6667288575        9.9453727096       16.1761713401
  C         6.5606637933        8.3281050012       17.6656790480
  H        14.3702466476        7.2201931928        5.7100867317
  H        14.9378915768        6.3246031201        4.3047649548
  C        15.5731849291        5.3331387318        5.9813391432
  H         7.1068110590        6.8734860516        3.0514286680
  H         7.7626492773        7.0405735728        1.4521282602
  C         6.4739511335        5.4349045681        1.4837946227
  N        11.5110843965       -0.7646933093        1.7905370328
  C        12.0462995784       -0.5113876862       -0.3454930250
  C        12.3260651650        1.7687654783       -1.3727491716
  H        12.1311255441        3.4365460027        0.0109536590
  H        13.6738437050        3.0836547285       18.2105791814
  H        12.3029572535        2.0749804977       18.0252270850
  H        12.2452842436        3.6278736622       17.1986683484
  S         6.3210545014        6.7122033852       18.1495669943
  C         6.4179145723        9.3447587433       18.7448896247
  H        15.2413475494        4.9229837058        6.9145361097
  H        15.8510581797        4.4564621237        5.3158336414
  C        16.8556070087        6.1446179887        6.4164968121
  H         6.5215588193        4.6492301033        2.0566773639
  H         6.6321977233        5.2950472902        0.5359125281
  C         5.0384030820        5.8823906663        1.6517117503
  S        11.4995325043       -2.3030165677        1.2417717946
  N        11.8998371619       -1.8528473352       -0.3297206544
  C        12.3840347606        0.3028424513       -1.5108744081
  H        12.4220787249        2.5171470671       -2.1928994600
  C         5.7653860345        7.3712882902       19.6377695016
  N         5.8249732755        8.7465984062       19.8175768703
  O         6.7058523712       10.4920426210       18.5278208692
  H        17.2618490603        6.7081371659        5.5355248669
  H        16.6268110952        6.9070454294        7.1326041204
  C        17.8742343746        5.2008484960        6.8374628368
  H         4.2872354615        5.0587347180        1.3217402877
  H         4.8685219324        5.8600282541        2.7480236047
  C         4.6647693833        7.4092974864        1.3528696337
  C        12.7384147963       -0.3834914225       -2.6976557888
  S         5.5786571117        6.4014672963       21.0271900584
  C         5.8100840573        9.4641177659       21.1699722698
  H        17.6194710292        4.5869411821        7.6398619091
  H        17.9535945466        4.6537437134        5.9582011828
  C        19.2411134258        5.9492607641        7.0576269635
  H         3.9446264375        7.3964206957        0.5051875899
  H         5.5911912080        7.8432411006        0.9248936851
  C         4.2379717149        8.1103025988        2.6236817852
  H        12.4948136617       -1.4673073939       -2.7203080756
  C        13.2034831966        0.0621965569       -3.9400441994
  H         5.0058520237        8.9011043535       21.7320645574
  H         5.3121185073       10.4602158318       21.0771888583
  C         7.2726286608        9.5663848706       21.7337047123
  H        19.6649648468        5.5281646362        8.0838376096
  H        18.9021441274        6.9883858632        7.6027613308
  C        20.1466587846        5.9411653857        5.9322065941
  H         3.4191063035        7.6833101869        3.0000402240
  H         4.9347212918        8.0731578648        3.4062032257
  C         3.6919590146        9.6042591414        2.3692419222
  S        13.7510281367        1.6693958520       -4.2419361369
  C        13.4427949376       -0.9082616093       -5.0720583876
  H         7.6002962952        8.7313742345       22.4244840432
  H         7.4420490978       10.4697092385       22.3229069556
  H         8.1715377372        9.4395359509       20.9750234872
  H        21.1828846996        6.2746033455        6.1448783815
  H        20.2486928664        4.9654869055        5.3351708296
  H        20.0853820897        6.6635463260        5.1617706832
  H         3.3394148144        9.9958165952        3.3650664378
  H         4.5904194573       10.1095252216        1.9931045027
  H         2.8042243983        9.5322912102        1.6879257964
  C        14.2207947379        1.1479243317       -5.8079805498
  N        14.1381493583       -0.1644448377       -5.9879185837
  O        13.1746893107       -2.0351422761       -5.0059034657
  S        15.0818633739        2.1096090781       -6.9992218661
  C        14.4510431965       -0.8227650528       -7.2397831956
  H        14.3896960427       -1.9282179388       -6.9897267148
  H        15.4830016372       -0.4222793461       -7.4870597170
  C        13.3449910662       -0.5393501389       -8.3324438297
  H        12.3647503830       -0.1356507969       -7.9519040203
  H        13.2603985434       -1.3886631324       -9.0891332721
  H        13.8357920114        0.3112027041       -8.9431283223
