352
 i =    92400, time =    46200.000, E =       100.0426204214
  H        11.6289542502        7.3150098003       32.9900714237
  C        11.1992453269        6.3197709741       32.9681435581
  H        12.0155092284        5.7202207184       32.5219220200
  C        10.0953296804        6.2276435377       31.9211790558
  C        10.9035064791        5.7123107154       34.3045070896
  C        10.6557890432        6.4011525794       30.5134655955
  H         9.5429433730        5.2727927676       32.0584294945
  H         9.3933945357        7.0835883784       32.1015055999
  H        11.4267307087        6.2859414069       35.0200597616
  H         9.8531490591        5.9056950736       34.5362825987
  H        11.1570587836        4.6683603182       34.3601328006
  C         9.6637823204        6.0155949411       29.3991392528
  H        11.4613724273        5.7470884996       30.4042519955
  H        11.1687887059        7.3862726177       30.4247539031
  C        10.3619251869        5.9407526751       28.0361131176
  H         9.1427108553        5.1339187259       29.7818849876
  H         8.8720354203        6.8028938864       29.3289707175
  C         9.5446305814        5.2600256355       27.0012058358
  H        11.3478024990        5.4475314649       28.0950486270
  H        10.4118535836        6.9396894676       27.5674767556
  C         8.2891910328        6.0051530982       26.4965671779
  H        10.1477096781        5.1263856043       26.0713511852
  H         9.3564292964        4.3218182723       27.4604539624
  C         7.2726516895        5.1294782062       25.7117186356
  H         7.8203483313        6.4652743075       27.4039116431
  H         8.6977396953        6.7873734621       25.8197075603
  C         6.8650384478        3.8306538951       26.4307806255
  C         7.8372034644        4.3714999055       24.5701471756
  C         5.9989179183        6.0105127862       25.4524044688
  C         7.2763898645        2.7037006047       25.6730989775
  C         6.1622848386        3.4429904660       27.5963000307
  C         7.7987410106        3.0245627892       24.4472156309
  C         8.3291974600        5.0236301088       23.4107415479
  H         6.1953103701        6.7310532702       24.6800220811
  H         5.7219408738        6.4986876950       26.3563465265
  C         4.8356194094        5.2640644726       24.8146915489
  S         6.9679334758        1.2132083070       26.4956113903
  C         6.1424147464        2.0871209240       27.7864860929
  H         5.7106943667        4.2348179454       28.1787345714
  C         8.3190805564        2.3991567230       23.3717878697
  H         8.2627795624        6.0811305238       23.4006923592
  C         8.6452941426        4.3596599132       22.2402294895
  H         5.3184720359        4.7318459455       24.0087530142
  H         4.5063116857        4.4892584948       25.4754948181
  C         3.6069808071        6.1272919134       24.4221503313
  C         5.7985907163        1.4550572131       29.1046482033
  C         8.6655136721        2.9966352463       22.1407335629
  H         8.1667736165        1.3513360721       23.2253269524
  C         9.0036834317        4.8096305339       20.9607954185
  H         3.0902855655        5.5474707285       23.6702633227
  H         3.8974592560        7.0758910495       24.0201787576
  C         2.7421210971        6.4288907631       25.6782259564
  C         5.7611704915        0.0961567973       29.3463281879
  C         5.5482558760        2.3084275394       30.3000599103
  C         9.1233928551        2.3902652659       20.8613313831
  C         9.2956105012        3.7130628119       20.1420662759
  S         9.2126268481        6.3302615502       20.2556381772
  H         2.0204716354        7.2048445086       25.3726585036
  H         3.2863355151        6.9348931432       26.4409696241
  C         1.9627409213        5.2305482233       26.3212229860
  N         6.0846300929       -0.9196196184       28.4132038340
  C         5.4903442016       -0.4601253601       30.6064028209
  C         5.1902215928        1.7691342409       31.5230501090
  H         5.5644559262        3.3290043053       30.3483519382
  C         7.9581412369        1.5161477284       20.2785342241
  C        10.4321039111        1.6415777809       20.9204480584
  C         9.6999022338        4.0707216517       18.8535473855
  C         9.6422126734        5.4707370023       18.7722926089
  H         1.2467014044        4.7732834641       25.6587647232
  H         2.6554212954        4.4528566804       26.5414006577
  C         1.4761966674        5.5889165988       27.7972765271
  S         5.9105405015       -2.3837003087       29.1103219097
  N         5.4591572074       -1.8598014442       30.5794783399
  C         5.2140669344        0.3173581208       31.7502481132
  H         5.0665600574        2.4743698472       32.2717933525
  H         7.8244552240        0.7016673988       20.9396944312
  H         8.2800712872        0.9582375958       19.4010394801
  C         6.5989241538        2.2694867700       20.0345681634
  H        10.7637229415        1.3709639238       19.9187951127
  H        10.1246367081        0.7305093337       21.4941724125
  C        11.6236775433        2.3638061040       21.5219163317
  H         9.8763277542        3.2468920903       18.1486962633
  C         9.8538585187        6.3273582573       17.4912446333
  H         0.7855770000        4.7613060091       28.0836193083
  H         0.9152787995        6.4524171345       27.8433948214
  C         2.6077817024        5.7346066287       28.8262023356
  C         4.9885064255       -0.3360998088       32.9640001296
  H         6.6535542223        3.1800099263       20.5681253507
  H         5.8822056204        1.5758395940       20.5909959905
  C         6.0838680830        2.3457340964       18.5119156804
  H        11.4536865642        2.8450000085       22.5337559578
  H        11.9850418347        3.1583630632       20.8754237191
  C        12.8741198666        1.5842957608       21.8106142258
  C         9.8814962943        7.7854756366       17.4520676851
  C         9.9959379103        5.6148746099       16.2066892976
  H         3.4845140049        5.0485229504       28.6939955729
  H         2.8746107634        6.8066918051       28.7064655180
  C         2.0721826335        5.4487998457       30.2892218643
  H         5.0819942695       -1.4232815314       32.9381684220
  C         4.7806403063        0.1262915467       34.2430281159
  H         6.0960526932        1.2908558534       18.2285522678
  H         6.7946603159        2.9820087411       17.9683888772
  C         4.6069723211        2.8992790355       18.4111641951
  H        12.5913226004        0.8917724330       22.5935934395
  H        13.2060793556        1.1077829353       20.8639830108
  C        13.9359263859        2.5679937629       22.3355010601
  N         9.6476909547        8.6325580114       18.5298802571
  C        10.0922532476        8.4808710317       16.2774240743
  C        10.3657097923        6.2846275432       15.0548767617
  H         9.9601985633        4.5457117803       16.1713313439
  H         1.8963150836        6.3954543916       30.7688475961
  H         1.0387849876        5.1009203218       30.2078685631
  H         2.4801460611        4.7317825696       30.8959830939
  S         4.5960769947        1.7533099038       34.6815564913
  C         4.7542807160       -0.9116220140       35.3294823855
  H         4.0684033743        3.1654051596       19.2987905302
  H         4.7771720104        3.7577983521       17.7530520185
  C         3.8471568770        1.8401476880       17.6857358090
  H        13.5079730412        3.3441064390       22.9108395526
  H        14.3793962024        2.9802387363       21.4749063998
  C        14.8297616524        1.7332745455       23.1925053783
  S         9.7234763945       10.1726782547       17.9869173253
  N         9.9761740244        9.9048816227       16.4217504511
  C        10.3709620169        7.8175105908       15.0692258509
  H        10.4816331596        5.7838694399       14.1058127270
  C         4.1347731963        1.1277654411       36.2731120138
  N         4.4420902308       -0.2115320856       36.3928504376
  O         4.9285923643       -2.0968101513       35.2128615360
  H         4.5047974599        1.3796497060       16.9247392841
  H         3.0235637459        2.3509878793       17.1746420592
  C         3.3227751786        0.6916082106       18.5963392427
  H        14.3938667059        1.4188509592       24.1394927077
  H        15.0198267136        0.8317790011       22.5646013237
  C        16.0650026896        2.4152443871       23.7074727537
  C        10.6785647680        8.6470301894       13.9803877973
  S         3.6084529340        2.1508271273       37.5629759838
  C         4.3154147949       -0.8439467682       37.6930455322
  H         4.1747043749        0.2221131645       19.0734149890
  H         2.5886747270        0.8996241012       19.3917909714
  C         2.5789828977       -0.4358999171       17.8767203885
  H        16.4902628861        1.5692566467       24.2621674418
  H        15.8658490221        3.1589977013       24.4567368037
  C        16.9357823090        2.8286579686       22.6173848804
  H        10.3049834517        9.5955467281       14.0724224765
  C        11.3457146902        8.3964368591       12.8053673043
  H         3.4739445631       -0.4212987741       38.2227387750
  H         4.0512016787       -1.8977821782       37.4503787309
  C         5.6511895372       -0.9945779087       38.3939503560
  H         3.1229093405       -0.8731241321       17.0686054886
  H         1.5504880050       -0.1874834807       17.6705663347
  C         2.3542091020       -1.6216585421       18.8590107472
  H        16.5560959090        2.4768115039       21.6538661137
  H        16.9224722903        3.9179122383       22.6668525295
  C        18.3816016298        2.3633574972       22.6517506118
  S        11.7715549811        6.8035350989       12.2054451049
  C        11.4442667556        9.5163497941       11.8330246766
  H         6.2138617338       -1.8464188463       38.2210108308
  H         6.1924943062       -0.0748439747       38.1631583173
  H         5.4961193594       -0.9603777176       39.4869900772
  H         3.2835864941       -1.7868407968       19.3547966301
  H         1.9478786170       -2.5070177434       18.4556830999
  H         1.5704760633       -1.3535375607       19.5138119404
  H        18.7159040570        2.0420652220       23.5686281503
  H        19.0046570300        3.1777352928       22.3378149597
  H        18.5314174576        1.5097757757       21.9458716280
  C        12.4375421246        7.6240626856       10.7902673696
  N        12.0947266542        8.9504885302       10.7433929544
  O        11.1160274887       10.7014816844       12.0502018016
  S        13.1948977800        7.0321708147        9.3228296726
  C        12.2535989754        9.7380002305        9.5464099136
  H        12.1870651146       10.8171665117        9.8139368381
  H        13.2277467498        9.6726970061        9.0903256984
  C        11.1068080392        9.5047686428        8.5632538053
  H        11.3318469415        8.6820457083        7.8959226222
  H        10.2593317161        9.2383086492        9.1889857202
  H        10.8246917147       10.4282844460        8.0859336841
  H         4.5959650437        1.3309507035       12.8521254152
  C         3.9671039894        2.2401335482       12.9188923126
  H         4.7170449156        3.0185750775       13.1264519905
  C         3.2764080195        2.6738016766       11.6207970875
  C         2.9304431594        2.0259959206       14.0216136514
  C         4.3424741377        2.9337593106       10.5190977337
  H         2.6361345478        3.5736013159       11.8752433028
  H         2.5872178692        1.9140148896       11.2953594113
  H         2.2601090668        1.1782298585       13.8189770982
  H         2.2092443737        2.8907594682       14.1087641031
  H         3.4526323272        1.7744167023       14.9729474678
  C         4.7855184614        1.6106932854        9.7951716375
  H         3.8487614381        3.6148855300        9.8472423862
  H         5.1965647792        3.4531588323       11.0155007754
  C         5.6093811097        1.9412816491        8.5583263573
  H         3.9910974076        1.0246180551        9.3172478678
  H         5.3413521768        0.9997182499       10.5042723705
  C         6.8094938598        2.8009115785        8.9360263048
  H         4.9914646366        2.2988225049        7.6882436287
  H         5.8688157005        0.9352857561        8.1958207248
  C         7.9906028761        2.0398690594        9.5186853748
  H         7.0107953127        3.2868465567        7.9364696342
  H         6.5343876250        3.6075003042        9.5893355307
  C         9.2677184948        2.9575577497        9.6739746923
  H         8.2704837098        1.3239317471        8.7549014444
  H         7.7893821536        1.5989001768       10.4942876205
  C         8.9231948676        4.2834820455       10.3608075722
  C         9.6258845741        3.6101383231        8.4151985155
  C        10.4580690864        2.2671454579       10.3493965853
  C         9.1054765156        5.3487937606        9.5047536681
  C         8.3092882572        4.6165669975       11.5834266189
  C         9.6070874912        4.9651923022        8.2693807912
  C         9.9406466560        2.9757674052        7.2077242545
  H        10.1028468679        1.8931550620       11.2938321311
  H        10.7014007382        1.3518509396        9.8633319677
  C        11.7154581183        3.1512012040       10.6185185590
  S         8.5121310297        6.8129296629       10.1907184992
  C         8.0351273715        5.9626041720       11.6241395567
  H         8.0330528068        3.8323386007       12.2758499696
  C         9.9218403496        5.6042867614        7.1082336633
  H         9.9790089729        1.8868990875        7.2593785674
  C        10.2427371023        3.5808235740        6.0695009180
  H        11.5740905633        4.2468515759       10.8679736257
  H        12.1665521723        3.0902402503        9.6043897540
  C        12.6474486499        2.4426633289       11.6764896670
  C         7.4557568368        6.7722562694       12.7259337975
  C        10.2451435158        4.9252155099        5.9470577712
  H         9.7139746562        6.6292623959        7.0172256215
  C        10.6467971326        3.0700287227        4.8324134209
  H        13.4359996151        3.1058379514       11.8778940860
  H        13.0463337907        1.5244233188       11.2799247129
  C        11.9336135285        2.1139932383       12.9015885979
  C         7.4929049971        8.1632643954       12.8966276782
  C         7.1416343598        5.9513384767       13.9274559630
  C        10.7072055574        5.4915492629        4.6401509816
  C        10.9221614957        4.1395700367        3.9838938272
  S        10.9083727766        1.5282181302        4.0948849151
  H        11.1050996724        2.8650129786       12.9646749280
  H        11.4849815111        1.1312221065       12.7739742810
  C        12.8342013514        2.0713142816       14.1670292989
  N         7.8429192673        9.1160973430       11.9037863567
  C         7.3035551385        8.7538714312       14.1338515219
  C         6.8372992025        6.5467205855       15.1069064101
  H         7.3290206966        4.8722351806       13.8970090301
  C        12.0184726670        6.3482495903        4.8071638909
  C         9.6475448093        6.3361712907        3.9692526147
  C        11.1871742356        3.7270261031        2.6819677218
  C        11.3700727865        2.3622410650        2.6150202074
  H        13.6588258188        2.8118175156       14.0145927815
  H        13.3825876094        1.0978079983       14.2137379080
  C        12.1940210272        2.3160579636       15.5481185119
  S         7.8706244239       10.6433221396       12.5356687570
  N         7.5119128426       10.1568735488       14.1226322513
  C         6.7988135676        8.0357384760       15.2586681285
  H         6.6231882693        5.9340069930       15.9499277602
  H        11.7905734460        7.2732667377        5.3883262491
  H        12.2419372188        6.7635966508        3.8748463813
  C        13.2211956758        5.6461708632        5.5331695105
  H         9.2675254666        6.9147295551        4.7500500505
  H        10.1486008021        6.9735416174        3.2061025523
  C         8.5430614891        5.4862207456        3.4155245403
  H        11.5828728393        4.3974478313        1.9274164412
  C        11.7020699018        1.6073445102        1.3595940109
  H        11.7052852732        3.2720710908       15.5797404020
  H        11.4305154257        1.6079632138       15.6646506929
  C        13.2812633584        2.1007977086       16.5638515274
  C         6.6796708034        8.6458819048       16.5301867671
  H        12.8457617244        5.3138756337        6.5490603774
  H        13.3293358391        4.6741139285        5.0071211751
  C        14.4840008788        6.5880318001        5.7603036635
  H         8.1659436588        4.8316862572        4.2144143746
  H         8.7725422227        4.8541974293        2.5048083772
  C         7.3710927119        6.3029016227        2.8842644609
  C        11.7971834443        0.2458185290        1.1803811484
  C        11.8967513863        2.3846246089        0.1271176413
  H        14.1300239112        2.4525063335       16.0892620673
  H        13.3949620978        0.9937586275       16.6912937226
  C        13.0687245890        2.7220542522       17.9823249657
  H         6.7746633665        9.6844354098       16.4534802247
  C         6.4511534017        8.1869029439       17.8354414936
  H        14.2142673474        7.5827711752        6.2609301758
  H        15.0404401938        6.8449715852        4.8683191652
  C        15.4183491649        5.9070493000        6.7318598505
  H         7.1602419178        6.9350591964        3.7312337703
  H         7.8760111871        6.8814077354        2.1250299663
  C         6.1835173718        5.5720458535        2.3368261072
  N        11.6316315203       -0.6481392675        2.2033297231
  C        12.1913285011       -0.3672873961        0.0131471641
  C        12.2321886419        1.8125660167       -1.0900696740
  H        11.6608256312        3.3712470636        0.0890044006
  H        12.0458774230        2.5274689658       18.2249035047
  H        13.1665069483        3.7839573991       17.8782899607
  H        13.8912197191        2.3809512501       18.6815450792
  S         6.0859840562        6.5289265833       18.4036889954
  C         6.4248756590        9.1796971143       18.9558538116
  H        15.6993206109        6.6541392417        7.4502588468
  H        15.0542064426        5.0722057478        7.3199868268
  C        16.7097104976        5.4743732616        5.9946002907
  H         5.9785446706        4.6590921622        2.8797491829
  H         6.4343008706        5.2708411545        1.3589298846
  C         4.9342841920        6.4664489606        2.3354518159
  S        12.1116468983       -2.0854612914        1.6278957051
  N        12.4326786020       -1.7069808352        0.1246286543
  C        12.4394260771        0.3421334579       -1.1771429268
  H        12.2118927991        2.4553907502       -1.9710189991
  C         5.8257683612        7.2633434182       20.0100160020
  N         6.0434516942        8.6166682980       20.1241016123
  O         6.5388315489       10.3730035071       18.7340671190
  H        16.4465991966        4.9169262517        5.0707425244
  H        17.2160678490        6.3075768627        5.6548269329
  C        17.7686295878        4.8502909125        6.9137250676
  H         4.1359886595        5.7557277265        2.0356310388
  H         4.7136989987        6.8003745854        3.3902795147
  C         5.1561646240        7.6534641637        1.4627649812
  C        12.8472177473       -0.3456396305       -2.3927415476
  S         5.3052068144        6.4807610800       21.4397184567
  C         6.0973989371        9.4168669081       21.4010876438
  H        17.3470226420        4.2384750428        7.6992434546
  H        18.4173341434        4.1496601013        6.3239958701
  C        18.6579654272        5.9835699692        7.5393493181
  H         5.5881158997        7.3847550915        0.5118932094
  H         5.9257839271        8.2618685164        1.9019052681
  C         3.8662176626        8.4296588144        1.1384810677
  H        12.6011442598       -1.4242339077       -2.3154142989
  C        13.3612375636        0.1042690431       -3.6261194095
  H         5.2446952484        9.2854711068       22.1173425662
  H         6.0081534052       10.4006801846       21.0228047371
  C         7.4040910480        9.2414281027       22.0358683134
  H        19.1659503620        5.7442916178        8.5272143831
  H        17.9705631282        6.8163420637        7.6590287188
  C        19.7497661907        6.2743325056        6.5828645906
  H         3.7685725402        8.5098252372        0.0697764882
  H         3.0016889846        7.9535394725        1.5968656127
  C         3.7822141777        9.7851684317        1.8224502526
  S        13.5739496834        1.7949292737       -4.0502830629
  C        13.5191269729       -0.9093626893       -4.6781992984
  H         7.5771209577        9.9503517486       22.8596227158
  H         8.3395126141        9.2154984889       21.4431271386
  H         7.4547903522        8.2062485307       22.4863859784
  H        20.5924796550        5.5557546582        6.5969232871
  H        19.3731107427        6.2465924272        5.5567516811
  H        20.3237477851        7.1709256932        6.6880059649
  H         4.2431512583        9.8265047752        2.8337480554
  H         4.2958792282       10.5258440068        1.2432872780
  H         2.6936256002       10.0094956156        1.9657001037
  C        14.1516614318        1.1256998118       -5.5724586071
  N        14.0755844603       -0.2138615867       -5.7071015790
  O        13.3876663205       -2.1301636620       -4.5966069969
  S        15.1677553631        1.9657587085       -6.7547911662
  C        14.4757832701       -0.7242040408       -6.9733348916
  H        14.6092104309       -1.8450189258       -6.8434943155
  H        15.5166626587       -0.4352884897       -7.2363363698
  C        13.3433025788       -0.5181476484       -8.0194379795
  H        13.6561488110       -0.8554288632       -9.0323407407
  H        13.1054596279        0.4867894261       -8.0402293494
  H        12.4301332565       -1.0367252247       -7.8179170756
