352
 i =    70900, time =    35450.000, E =        99.2557875377
  H        12.1310685179        6.6653341172       32.4989089238
  C        11.7495121817        5.6923559728       32.2119926498
  H        12.6763817631        5.1766157311       31.9859484635
  C        10.7683257355        5.7677617747       31.0692951654
  C        11.0717626388        5.1285398202       33.3866750074
  C        11.4090637512        6.0384890127       29.7268951763
  H        10.1905452123        4.8153256135       30.9432858201
  H         9.9650899177        6.5266180694       31.2038685614
  H        10.5260132257        4.3211621221       32.9986804640
  H        11.7584766531        4.6784928468       34.1060016666
  H        10.4830734341        5.8336856613       33.9797824600
  C        10.4242490712        5.6215497152       28.6388761993
  H        12.2832120946        5.4394878205       29.5199593315
  H        11.7154924357        7.0875822980       29.5787111314
  C        11.0162179123        5.9222272355       27.2596745344
  H        10.1217954311        4.5437197853       28.7844772103
  H         9.5358673792        6.3559062343       28.7880880048
  C        10.1014034448        5.2598022908       26.1432519743
  H        12.0571203379        5.6767301954       27.1707426598
  H        11.0400035705        6.9779325244       27.1630500633
  C         8.7585341346        6.0731712025       26.0001655636
  H        10.6935576251        5.3068562655       25.1849203776
  H         9.9912710582        4.2284935057       26.1595885602
  C         7.5867726901        5.3150821637       25.3185538298
  H         8.4369252656        6.2354042727       27.0527087358
  H         8.8810612394        7.1164620279       25.7223372408
  C         7.2714413730        3.9856816870       25.9732453210
  C         8.0644805714        4.6767121357       24.0591264083
  C         6.3846803083        6.2534289173       25.0657511939
  C         7.4990472565        2.9405026048       25.1759737983
  C         6.7030657992        3.5636046300       27.1863420157
  C         8.0561656712        3.3361805218       23.9370922415
  C         8.5432500334        5.3399495518       22.9350486622
  H         6.6204636507        7.0033549200       24.3303389699
  H         6.0770696756        6.8138954010       25.9636581887
  C         5.1155656956        5.5753563130       24.5893322122
  S         7.0122691093        1.4193046858       25.8126779018
  C         6.5571173498        2.2176944292       27.2236644509
  H         6.3718653466        4.3237038743       27.8813575272
  C         8.5446093093        2.7484817520       22.8293639430
  H         8.5760400841        6.4317051905       23.0679329516
  C         8.9367126202        4.7689799700       21.7370238671
  H         5.4014826561        5.3604674837       23.5397974451
  H         4.8712512803        4.6653785420       25.1165423943
  C         3.9073904688        6.5447731119       24.6393880621
  C         5.9719863460        1.4273455486       28.3832946020
  C         8.9690740414        3.4156234965       21.6319981276
  H         8.7090433363        1.6769616230       22.8390059720
  C         9.4166063378        5.1352335511       20.4692844382
  H         3.3109868088        6.1797622205       23.8720807087
  H         4.2288483284        7.4514326583       24.3454759228
  C         3.1499385475        6.5414728641       26.0424663269
  C         5.9729232401        0.0470053145       28.6202394340
  C         5.4328830152        2.1884830813       29.5266440948
  C         9.4951119572        2.6936537478       20.3645011485
  C         9.6854398875        4.0360524693       19.6594836514
  S         9.6681349658        6.6867604092       19.7367998992
  H         2.5195603177        7.3949177500       26.0613776479
  H         3.8595551598        6.8095206435       26.8469490376
  C         2.5047097741        5.2201283103       26.5027192030
  N         6.4606199388       -0.8338928711       27.6772825416
  C         5.6606477791       -0.4852151193       29.8493648008
  C         5.1503223609        1.6641172362       30.8112619351
  H         5.4132782787        3.2748207617       29.5657882203
  C         8.4753013790        1.7923392322       19.7080630535
  C        10.7530337786        1.8548392545       20.5711381072
  C        10.0835458575        4.4664167798       18.3777206619
  C        10.0493437824        5.8664901234       18.2641922542
  H         1.9138701337        4.6836708447       25.7142190172
  H         3.3260695645        4.5534238552       26.7134741525
  C         1.5914225252        5.3209460275       27.7574431367
  S         6.3779628325       -2.3233039550       28.3079682506
  N         5.8296956665       -1.8938386377       29.8413908886
  C         5.2583936448        0.2352484154       31.0150573398
  H         4.8732713223        2.3494754773       31.5779933592
  H         8.1705419760        0.9586208026       20.3746609117
  H         8.8631250355        1.4914200649       18.7572408069
  C         7.1211966518        2.6054719546       19.4522966101
  H        10.9085017797        1.2084671720       19.7399072943
  H        10.5079292756        1.2221087397       21.4676991106
  C        11.9673893858        2.6801224036       21.0015750810
  H        10.2818570151        3.7095000640       17.6305708506
  C        10.3774115682        6.6815042597       17.0620207462
  H         0.9815441097        4.4454963515       27.8983646128
  H         0.9130312135        6.2030813399       27.5614625227
  C         2.4053889039        5.4797824915       29.0224578462
  C         5.1938749770       -0.3724403047       32.2951213744
  H         7.2783458830        3.5029595646       18.9117520040
  H         6.7178107609        2.8824210661       20.3835272700
  C         5.9917259873        1.8109984651       18.8059830769
  H        11.8708259269        3.0233458884       22.0610006468
  H        12.1178273964        3.6356939746       20.5224837451
  C        13.1432978399        1.7310783109       20.8290188972
  C        10.3139882802        8.0731395898       16.9522703327
  C        10.6156681942        5.8602252606       15.7708444879
  H         3.0355929299        4.6343025099       29.1846367585
  H         3.0465259727        6.3500055123       29.0252524398
  C         1.6064605903        5.4809909525       30.3134792499
  H         5.3261457694       -1.4108738993       32.2092567567
  C         4.8838419984        0.0465351504       33.5465417642
  H         5.7387244572        0.9369635218       19.3563995087
  H         6.3596995585        1.5409528047       17.8544869902
  C         4.8163339611        2.7959573708       18.5771042442
  H        13.0376029810        0.8462527125       21.5578972651
  H        13.1873374108        1.3239485212       19.7870575835
  C        14.5258972898        2.3534522585       21.2486090345
  N        10.1816650610        8.9514918617       18.0131472951
  C        10.5856116779        8.7195560024       15.7742906359
  C        10.9507672298        6.5466893637       14.6257107838
  H        10.7479163803        4.8343371843       15.8032827936
  H         1.4721687888        6.5422080676       30.6374103559
  H         0.6624050599        4.9546452185       30.3537978999
  H         2.2229135920        4.9204606906       31.0281081229
  S         4.6177583917        1.6306829007       34.0374808967
  C         4.7664434276       -1.0716683817       34.6462390777
  H         4.9982148817        3.6924216981       19.1413673822
  H         4.9440082753        3.1471026788       17.5676663032
  C         3.3852617254        2.2202330461       18.8718439271
  H        14.7273480942        3.2977367679       20.8019118658
  H        15.1585638219        1.6103931085       20.7656673878
  C        14.8078083955        2.3187226027       22.7908057283
  S        10.2252375931       10.5058345192       17.4049420115
  N        10.6146983902       10.1349325743       15.8846255719
  C        10.8468352963        8.0118979053       14.5943294442
  H        11.1568426746        5.9640099667       13.6943580173
  C         4.3701536180        0.9191658767       35.7008284081
  N         4.3248137468       -0.4299530687       35.7399995373
  O         4.8853014089       -2.2299425933       34.4726713146
  H         2.6035793471        3.0099916117       18.8468311929
  H         3.4862104818        1.8248611327       19.8631203185
  C         2.8793821450        0.9594171643       18.0455201287
  H        14.0164860711        2.5873691148       23.4929031254
  H        15.1124714055        1.3099086988       23.0535025762
  C        16.0387588877        3.2479156416       23.0810621181
  C        11.1346003468        8.7073370009       13.3742629682
  S         4.1860121113        1.7534899126       37.2557771069
  C         4.2439733982       -1.1427168686       37.0014044845
  H         2.2550094820        1.3957052095       17.2921070245
  H         3.7417061465        0.4304817270       17.6807868563
  C         2.0657047002       -0.0321631453       18.9045954463
  H        16.3775127603        3.4150155618       24.0892738222
  H        15.8228028720        4.2640043287       22.7843362082
  C        17.2609760181        3.0098684748       22.2224511474
  H        10.7458376181        9.6948835483       13.3808083448
  C        11.7297833254        8.4384829974       12.1630625571
  H         3.4699001922       -0.7827627752       37.6577752042
  H         4.0560120083       -2.1552921413       36.7203741601
  C         5.5850946942       -1.2073129034       37.7359691871
  H         1.0708103789        0.4127614290       19.2456840635
  H         2.5747111460       -0.2296652391       19.8405773521
  C         1.7502194360       -1.3144203287       18.0372368457
  H        17.0113340245        2.5680244115       21.2479751516
  H        17.6879037741        3.9168284460       21.8813323092
  C        18.1893277728        2.0882659418       22.9810105005
  S        12.3745388479        6.9753571234       11.6224445812
  C        11.9395357133        9.5717915693       11.1713249899
  H         6.3010055896       -1.6958998106       37.1409630776
  H         5.9500261498       -0.1956557813       38.0645004314
  H         5.4870761337       -1.7458063283       38.6179131244
  H         1.1572337045       -1.1194134981       17.0981398248
  H         1.1159181319       -2.0204929041       18.6096846258
  H         2.7280269233       -1.7979823470       17.8142804806
  H        19.1376856480        1.9828433463       22.4559554702
  H        17.8620966214        1.0911709034       23.2786805540
  H        18.5503903668        2.5798020330       23.8672747085
  C        12.8036385745        7.7394921579       10.1133492444
  N        12.6722081033        9.0751280460       10.0761322828
  O        11.5760816608       10.7451589005       11.2748090800
  S        13.7077159312        6.9528138520        8.7534877605
  C        12.9166456948        9.8181310448        8.8569228265
  H        13.2162163769       10.8513973011        9.0837711591
  H        13.8517290713        9.6119328191        8.2938408746
  C        11.6617444104        9.9392865551        7.9596295574
  H        10.8981135098       10.4950455037        8.5045956831
  H        12.0173782743       10.4626821687        7.0693250370
  H        11.1857662645        8.9767045801        7.6749698143
  H         3.5110800535        1.9107662612       12.0030433864
  C         3.8178859825        2.9271669677       12.2125772220
  H         4.7956050154        2.8064410867       12.6141276609
  C         3.5501319027        3.6671170194       10.8668929280
  C         3.0906979336        3.5619735565       13.3217047919
  C         4.7083793538        3.9476721006        9.9194186679
  H         3.2224659600        4.6615581321       11.0772665310
  H         2.8124549131        3.0736023410       10.3087399753
  H         2.6329632355        2.7914895684       14.0002273614
  H         2.3330634890        4.2075615311       12.8847027667
  H         3.7630123423        4.3218905797       13.8664745848
  C         5.2843522136        2.5447931285        9.3911033128
  H         4.2640908438        4.7100369914        9.2516872372
  H         5.4760884447        4.2388157797       10.5583586156
  C         5.8925876337        2.7164887270        8.0030535948
  H         4.4326836976        1.8907197564        9.2008572488
  H         5.8866902600        2.0477647400       10.1730299320
  C         7.1062776675        3.5788667575        8.0444400288
  H         5.1729911221        3.0758852023        7.3317717041
  H         6.1335529152        1.7750860342        7.5373221429
  C         8.3741830431        2.8359364347        8.6493677740
  H         7.3286838273        3.9952237048        7.0002605625
  H         6.9399780394        4.5277593948        8.6696308453
  C         9.5734340714        3.7188197605        8.8228999783
  H         8.5729688693        2.0352911137        7.9832132505
  H         8.2300847156        2.4361325017        9.6531955513
  C         9.2786118730        5.0629281326        9.4881309026
  C         9.9448454177        4.3887914888        7.5556190069
  C        10.7676634171        2.9378360347        9.4518979698
  C         9.5675782804        6.1622468612        8.6439036876
  C         8.8738998445        5.4319432724       10.7722687747
  C        10.0522920823        5.7287328205        7.4440032939
  C        10.4704791421        3.7706211739        6.4257625476
  H        10.3338928246        2.6537642102       10.4264965939
  H        10.9649835143        1.9939475829        8.9560540074
  C        12.0118785708        3.7820150398        9.7850414306
  S         9.2522368153        7.6556265626        9.4439630966
  C         8.7170405694        6.8362406013       10.8912696890
  H         8.6320233629        4.6912224149       11.5052449436
  C        10.4575004505        6.3212638548        6.2587776259
  H        10.4469722703        2.6947398777        6.5565460988
  C        10.8596905944        4.3354529077        5.2160343840
  H        11.6417179852        4.7290576223       10.2315326017
  H        12.4298689446        4.0842899881        8.8544898335
  C        13.0712431632        2.9720439193       10.6222731137
  C         8.1534588816        7.5456522786       12.1213333716
  C        10.8208172605        5.6676789170        5.0770572682
  H        10.3574417401        7.3904770826        6.1751463925
  C        11.2313271733        3.8730518235        3.9627289706
  H        14.0414929579        3.5438244714       10.5744726947
  H        13.2748219810        2.0750566289        9.9930615593
  C        12.6656835897        2.6416004616       11.9931601602
  C         8.0027075726        8.8927882407       12.3526680199
  C         7.6626996742        6.6263897062       13.1862154330
  C        11.4037324419        6.3151724798        3.8236564562
  C        11.5091139179        4.9304997423        3.1640748034
  S        11.3864828056        2.3236223728        3.2578846514
  H        11.8414874280        3.1988361098       12.3745829019
  H        12.2772613990        1.6101439803       11.8797438277
  C        13.7827734616        2.7701242185       13.0852192659
  N         8.3744401238        9.8760218816       11.4810877857
  C         7.7029011312        9.3619737940       13.6400334955
  C         7.2934898793        7.1088202901       14.4175184311
  H         7.5229339267        5.5814475352       12.9875592321
  C        12.7602232969        6.9673772710        4.1590770368
  C        10.3018554841        7.1375427045        3.0413276097
  C        11.7813754227        4.4364523770        1.7967024937
  C        11.6916549226        3.0908710238        1.7489706475
  H        13.6380577410        3.7622692795       13.5597457886
  H        14.8049695091        2.6313404869       12.5839558835
  C        13.7119538872        1.7209542359       14.1636336458
  S         8.3000813470       11.2741469187       12.2598086645
  N         7.7437943410       10.7703762559       13.7224767500
  C         7.3440081978        8.5157857098       14.7139002788
  H         7.0298056027        6.4491183324       15.1602735352
  H        12.5110766696        7.8651163770        4.7578024371
  H        13.2047891344        7.5227215410        3.3080599305
  C        13.7655059738        6.0590726057        4.9532588739
  H        10.0917323975        7.9697323729        3.7150516065
  H        10.7716070275        7.6397524404        2.1879080389
  C         8.9996762767        6.4249921686        2.7282844173
  H        12.0022814854        5.1507852614        1.0869006102
  C        11.8660976511        2.2919361215        0.4888608809
  H        13.5972487167        0.6846684433       13.7758974712
  H        14.6500596967        1.6831535379       14.6626100381
  C        12.6482829112        1.8554447359       15.2362409504
  C         7.1475464317        9.0475742155       16.0144446745
  H        13.3975416918        5.9096649772        5.9502465776
  H        13.7504941192        5.0769973694        4.5019783304
  C        15.0597543503        6.7369734073        5.0562941902
  H         8.6603452071        5.8751892128        3.6517455029
  H         9.1913027042        5.6256258863        2.0036648445
  C         7.8613167125        7.3734956191        2.3213420170
  C        11.8195256302        0.8798522916        0.3964035458
  C        12.0197564830        2.9470310645       -0.8229073639
  H        12.3135118664        0.9885967727       15.7413364043
  H        11.7805535414        2.3058961158       14.6936583108
  C        13.1942096740        2.8395558401       16.2739065960
  H         7.1061731430       10.1097247220       16.0058979551
  C         6.9231925545        8.4858030325       17.2657557277
  H        14.9610381018        7.6180442013        5.5872661784
  H        15.5319858412        6.9427505613        4.0720177666
  C        15.9653804653        5.8097756380        5.8521813742
  H         7.6390974801        7.9787444801        3.1411239445
  H         8.2155143531        7.8764381766        1.4297637318
  C         6.5235000616        6.6608735459        1.9154305579
  N        11.6926687229       -0.0456363920        1.4889835871
  C        12.1646647792        0.1743757494       -0.7755858939
  C        12.2514100454        2.2682920154       -2.0301678639
  H        11.9911551307        3.9892681393       -0.9220852228
  H        14.1977793981        2.8565170858       16.2829070663
  H        12.8028432552        2.5279170362       17.2315991867
  H        13.0190889026        3.8533415871       15.9416710229
  S         6.7599811698        6.8547612810       17.7775678834
  C         6.7182740860        9.4476943820       18.4212345809
  H        15.3710835912        5.2348697736        6.5650653311
  H        16.3985838316        5.1500761900        5.0857774570
  C        17.1849601449        6.6186730506        6.4380148420
  H         6.1945230235        6.1005510525        2.8113589047
  H         6.6670646436        5.9021549596        1.1215213880
  C         5.5072178559        7.6910914599        1.3292326768
  S        11.8590129121       -1.5591947651        0.9624969549
  N        12.3334898394       -1.1883339649       -0.5253412361
  C        12.4563224123        0.8053306076       -1.9893249504
  H        12.4002171068        2.7622745705       -3.0042203031
  C         6.2710773572        7.3962715604       19.3678208349
  N         6.3932357332        8.7501011354       19.5342346178
  O         6.8499741067       10.6761286012       18.3083871288
  H        17.6375674494        7.0970117354        5.5665504834
  H        16.9113829903        7.4374025346        7.0984918418
  C        18.2503292375        5.7401716089        7.1672177891
  H         5.9405337842        8.1888201941        0.4824728820
  H         4.7252082857        7.0980431137        0.8201850368
  C         4.8497309166        8.5944422365        2.4091592024
  C        12.8091692346        0.0473628451       -3.1047354568
  S         5.5715952147        6.4920375360       20.6674282014
  C         6.2797506170        9.4219688275       20.8341410348
  H        17.8672865945        5.3967363296        8.1706878986
  H        18.5106891353        4.8624270983        6.6770362090
  C        19.5419044558        6.4519969072        7.3237982680
  H         5.5771472263        9.1144970237        3.0311951659
  H         4.4523177720        7.7630520468        2.9515578983
  C         3.6750983334        9.5730711893        2.1581315968
  H        12.5284487074       -1.0025611826       -3.0503273995
  C        13.3652381518        0.4293526831       -4.2943814413
  H         5.4444591221        9.0011372856       21.4214140485
  H         6.0565326363       10.4735098073       20.7135068615
  C         7.5332455354        9.4333275463       21.6812988687
  H        20.1904197848        5.9058144627        7.9614085675
  H        19.2661064623        7.3769788970        7.8706149797
  C        20.2521605028        6.7150811984        5.9008096775
  H         2.8115294070        9.0547193192        1.7150096225
  H         3.3021832126        9.9578170236        3.1236966654
  C         4.2725444134       10.7075725690        1.4498535882
  S        14.0384791403        1.9085743744       -4.8209032475
  C        13.4079362959       -0.7213678339       -5.2952743577
  H         8.3685105693        9.6999494822       21.0452819422
  H         7.7681415396        8.5251235998       22.2411857452
  H         7.5372397522       10.2338150977       22.4699934975
  H        20.1938016398        5.8884935210        5.2563697035
  H        19.9295258041        7.6573201848        5.5278619725
  H        21.3518610657        6.7769309385        6.0049164671
  H         3.5451612947       11.5236035149        1.4570013077
  H         5.1733908731       11.0983414797        1.8906540917
  H         4.4718277030       10.4414300945        0.4304664184
  C        14.3573816374        1.0618905672       -6.3388346488
  N        14.0787604910       -0.2471724071       -6.3932845931
  O        13.1032978252       -1.9258503346       -5.0999009070
  S        15.2798391847        1.7494417788       -7.7362937261
  C        14.2437892471       -1.0388482904       -7.6075268471
  H        14.1772523629       -2.0863845405       -7.3440008824
  H        15.1719063555       -0.8031077516       -7.9821007503
  C        13.1177611783       -0.7380038612       -8.6010443717
  H        13.2440991867       -1.2916586913       -9.4689739044
  H        13.3119714980        0.2777189048       -8.9807646207
  H        12.1335487805       -0.9523172496       -8.1881847279
