352
 i =    38500, time =    19250.000, E =        98.6717186500
  H         9.4152153900        5.0378892231       31.6051586730
  C        10.0256751407        5.6805714384       32.1786736936
  H         9.3229495085        6.2197031276       32.9159034481
  C        10.5862343237        6.6129904562       31.0629061906
  C        10.9412526419        5.0229143184       33.2172911879
  C        11.2837978754        5.8645723447       29.8995650421
  H         9.7702206677        7.1343303158       30.5840924599
  H        11.2763286675        7.2662386095       31.5566477997
  H        11.8555546947        4.8670753157       32.5997098343
  H        11.0741541702        5.4865435680       34.2027992164
  H        10.6112431292        3.9739688722       33.3614257425
  C        10.3150407532        5.3014073172       28.8262738392
  H        11.8287614842        5.0215118901       30.3673790242
  H        12.0634003228        6.4653942244       29.4562498523
  C        10.9240337356        5.1239829489       27.4368130230
  H         9.7935214247        4.3961968761       29.0921964190
  H         9.5074234784        6.0725219907       28.7416230485
  C         9.8858281834        4.6075385910       26.3513298265
  H        11.8811390232        4.5828674072       27.4646805852
  H        11.1047216858        6.1530340916       27.1496445224
  C         8.5695386182        5.5657662773       26.2268976450
  H        10.3509415281        4.6328863271       25.3118892310
  H         9.6777217597        3.6482876717       26.6156235655
  C         7.3270752533        4.9671874347       25.5881830413
  H         8.2411473312        5.5835125916       27.2649432465
  H         8.6940832288        6.6087804649       25.9286648235
  C         6.9880538542        3.5967588645       26.2285731416
  C         7.7181375152        4.2691759395       24.3126310361
  C         6.0908918236        5.9461898556       25.4341937105
  C         7.2793854814        2.5004939605       25.3701346005
  C         6.4261357012        3.2026208680       27.4099559364
  C         7.7485495571        2.9573357174       24.1686974350
  C         8.1081400769        4.9771185891       23.1246653486
  H         6.4332304924        6.6818272960       24.6778172489
  H         5.7678852172        6.5129334947       26.3418361706
  C         4.8035845701        5.2411432890       24.9823842490
  S         7.0213788553        0.9552277199       26.1176769274
  C         6.4047814349        1.8164054624       27.4715988517
  H         6.0914075541        4.0481599698       28.0639005557
  C         8.1082208864        2.3123488205       22.9936083557
  H         8.2029004347        6.0645962023       23.1506767003
  C         8.5183257615        4.3794527728       21.9693068598
  H         5.0174301588        4.8015122018       24.0081744379
  H         4.5645090575        4.3473691785       25.6455685736
  C         3.4677805866        5.9814157208       24.9252320079
  C         5.8991997809        1.0846910904       28.6898472650
  C         8.4823404602        2.9985131767       21.8385084231
  H         8.1653762664        1.2202823752       23.0288464792
  C         8.9516327339        4.8366386240       20.7593630259
  H         2.8106867094        5.4257332631       24.3420476691
  H         3.6075499021        6.8761633357       24.3923512398
  C         2.8521531072        6.1450468104       26.2905220625
  C         5.7219287833       -0.3211777660       28.8934874504
  C         5.4311135105        1.9567536745       29.9004537024
  C         8.9219972467        2.3662707265       20.5377605392
  C         9.1859996262        3.7530107534       19.9221276708
  S         9.1384133220        6.3385639107       19.9516957670
  H         2.2510139432        7.0038372924       26.3627245345
  H         3.6020767055        6.4267875540       27.0217073721
  C         1.9742023311        5.0053402201       26.7291539843
  N         5.8794123299       -1.2756757763       27.9025062969
  C         5.3777693416       -0.9015926810       30.1223568366
  C         5.1085256634        1.3273549996       31.0791899186
  H         5.5599893849        2.9619356415       29.9427189484
  C         7.7411148684        1.6592161736       19.8264093995
  C        10.0790449317        1.4475400073       20.8605551891
  C         9.5855719098        4.1652801290       18.6509083775
  C         9.6126564803        5.5346060579       18.5326381832
  H         1.2703486030        4.8046802723       25.9293641662
  H         2.5986235262        4.1129794606       26.9786840673
  C         1.0885467932        5.4053402295       27.9335083065
  S         5.6561859873       -2.7295076870       28.5745799596
  N         5.5150066632       -2.2604340960       30.1016880458
  C         5.0553451764       -0.1888858308       31.2496003648
  H         4.8991826764        2.0079008945       31.8979862341
  H         7.3985233273        0.9326159275       20.5519402779
  H         8.1370111252        1.0654324699       18.9635993038
  C         6.6571254725        2.6814968719       19.2670189478
  H        10.2837535770        0.7024716920       20.0660054027
  H         9.8196373969        0.7766463248       21.7425837312
  C        11.3303257374        2.1803151390       21.2639844281
  H         9.7988752736        3.4202768747       17.8803198546
  C         9.9667370795        6.3103295207       17.2436968387
  H         0.3026785574        4.6753257134       28.0767348915
  H         0.5805753912        6.3915671996       27.9728079461
  C         2.0268232666        5.3293741800       29.2093650199
  C         4.8141572027       -0.8238034101       32.5267803384
  H         7.0291187070        3.3887009278       18.5161963311
  H         6.1103408212        3.1505282567       20.0208404372
  C         5.5385650152        1.8940535965       18.6346702175
  H        11.0839654497        2.9801199889       21.9732675629
  H        11.6385722938        2.8369832710       20.3795140297
  C        12.6013404619        1.3303694607       21.5654364293
  C         9.9793067019        7.7198045743       17.0894887277
  C        10.2264756043        5.5753728086       15.9686086250
  H         2.6027217426        4.3432546223       29.3022123675
  H         2.7465805309        6.0689110943       29.2588305955
  C         1.1175641847        5.4696792062       30.4743581368
  H         4.9807703064       -1.8884458931       32.5724364067
  C         4.6063679396       -0.3513824277       33.8171095258
  H         5.3858422448        1.0476404411       19.2933523556
  H         5.8588408567        1.5381177039       17.6082570609
  C         4.1429922035        2.5745493039       18.5748040099
  H        12.3402565767        0.6763301798       22.4381309018
  H        12.9675576277        0.7709839314       20.6892808819
  C        13.7174929108        2.2917277464       22.0170458186
  N         9.8213868678        8.6242915561       18.1096063481
  C        10.2042851806        8.3486988907       15.9061088261
  C        10.4613906919        6.2140332933       14.7392505732
  H        10.1090340962        4.5256264606       15.9685447422
  H         0.4853857787        6.2742983301       30.3193867872
  H         0.5531163484        4.5363425751       30.7629603183
  H         1.6974059720        5.6069210746       31.4004102633
  S         4.3078839401        1.3151955683       34.2680132156
  C         4.5144181993       -1.3329099490       34.9355983397
  H         4.2082791785        3.1127001515       19.5591707746
  H         4.0190301707        3.2291495439       17.7081021174
  C         2.8759977691        1.6981740154       18.6515047875
  H        13.4034087373        3.1415052595       22.5713258868
  H        14.1737768071        2.6209478258       21.0977353011
  C        14.6801270835        1.5145611537       22.9275654079
  S         9.8895015219       10.1184475249       17.4981881748
  N        10.2571097052        9.7331986949       15.9905411483
  C        10.4272422038        7.6850074922       14.7036230104
  H        10.5116366649        5.6052800711       13.8324062555
  C         4.0938911453        0.7052477561       35.9473881238
  N         4.2107065582       -0.6843840426       36.0978872400
  O         4.5523477181       -2.6083166746       34.8566679416
  H         2.1038676631        2.4453875180       18.5981868234
  H         2.7140490762        1.2386459938       19.5973392352
  C         2.8253161894        0.7083408875       17.5132871924
  H        13.9834408423        1.1859666604       23.6801394698
  H        15.1461603322        0.6456631596       22.4781785666
  C        15.7855976584        2.4778903984       23.4096346975
  C        10.7414566103        8.4341747343       13.5197338795
  S         3.3962682889        1.6380640539       37.2654148153
  C         4.0898357434       -1.4180953719       37.3993112990
  H         2.3509145988        1.3242454437       16.6388737990
  H         3.8974084505        0.5608592654       17.1592582884
  C         2.0545615883       -0.5467553446       17.9694076905
  H        15.3963238906        2.8230162950       24.3443265803
  H        15.8574743851        3.2373252181       22.6316939443
  C        17.1439000021        1.7333215046       23.5891658348
  H        10.5800261406        9.4971959288       13.7032875397
  C        11.3082723891        8.0835281165       12.3644104663
  H         3.1791950567       -1.2886016219       37.9663977018
  H         4.1322964078       -2.4561283440       37.0176316723
  C         5.3787485787       -1.1160869738       38.2785222110
  H         1.1506761386       -0.2185352385       18.4399740361
  H         2.6994226603       -1.0302810954       18.7600141756
  C         1.7802646957       -1.4574239288       16.7538322284
  H        17.8577754037        2.2758915888       24.2380750833
  H        16.7826180024        0.8574575697       24.1135987275
  C        17.8397054867        1.5042848394       22.1977985207
  S        12.0393231748        6.5736555056       11.9146639689
  C        11.3593060713        9.1627612931       11.2937172129
  H         6.1822655920       -0.6044066020       37.7032506458
  H         4.9562788646       -0.4241003621       39.0779037806
  H         5.8751013035       -1.9446633080       38.7826975212
  H         0.7638502474       -1.8924363899       16.9346553873
  H         2.5133942939       -2.2492828551       16.6475305623
  H         1.7879500458       -0.8474495017       15.9345807815
  H        18.8250094362        1.0987821787       22.3772293980
  H        18.0174740327        2.4162823317       21.8212550957
  H        17.2245199861        0.8664439570       21.4907997062
  C        12.3453026744        7.3323349331       10.3454970295
  N        11.8771542521        8.5985075164       10.1849666115
  O        10.9638801999       10.2934538022       11.4141919673
  S        13.2437160893        6.5830121286        9.0125222911
  C        12.0704704172        9.4573766634        8.9742923908
  H        12.4307928746       10.4523862234        9.1922362744
  H        12.7934241511        9.0506840995        8.1659248308
  C        10.7154404806        9.7028639899        8.2220549427
  H        10.9603271431       10.3775716616        7.4014979189
  H        10.4451326081        8.8050702164        7.6733145294
  H         9.8141108495        9.9681873345        8.8357034314
  H         2.6265744027        1.3882923126       14.4138181631
  C         3.4228752939        1.7983159291       13.7369921044
  H         4.0085682698        0.9295200043       13.5303229621
  C         2.8888002851        2.5245211899       12.4688875184
  C         4.3538894055        2.6417282094       14.6800216712
  C         4.0141772062        2.9027240993       11.4186486053
  H         2.3721674685        3.4600012319       12.7798773021
  H         2.1403735968        1.8909592602       12.0066419744
  H         5.0464982576        1.9740774240       15.1850589364
  H         3.7120000319        3.0092615214       15.5416107277
  H         4.8387354229        3.4227747306       14.1485868617
  C         4.5977615669        1.6061437909       10.8069234950
  H         3.5224119618        3.6020284713       10.7296715110
  H         4.7915978321        3.5461945392       11.8274920480
  C         5.2129065216        1.6570877500        9.3544744226
  H         3.8094831907        0.8439206928       10.7144436859
  H         5.3801587591        1.3536633250       11.4630881813
  C         6.4144311383        2.5970948108        9.1702406372
  H         4.4024773517        2.0975587340        8.7989555649
  H         5.3223367909        0.7120020560        8.8690751303
  C         7.7859199906        2.0005064238        9.4297459680
  H         6.2981564582        2.8864201828        8.1346205477
  H         6.3299703310        3.5359580176        9.7847947495
  C         9.0383031001        2.8704941673        9.4513218098
  H         7.9534924278        1.3307621861        8.5851357670
  H         7.6872542182        1.3850485059       10.3565471338
  C         8.6430420765        4.2596661785       10.0864661924
  C         9.4853833575        3.6440671570        8.2265558791
  C        10.3058490429        2.1814738998       10.2023342250
  C         8.8488655794        5.3374284685        9.2836970031
  C         8.0397407305        4.6483913560       11.2971930015
  C         9.4157992817        4.9572660936        8.1234637856
  C        10.0048691188        3.0191721835        7.1016567717
  H         9.8954439478        1.8177104259       11.1415795120
  H        10.7143773348        1.3443621609        9.5794780116
  C        11.5343375169        3.0430211014       10.4099305479
  S         8.2599853906        6.8056115243        9.9768043001
  C         7.8507969896        5.9578510745       11.4121134865
  H         7.9266223103        3.8954285709       12.0828494937
  C         9.8031824461        5.6371648733        6.9885397886
  H        10.1438384634        1.9794917822        7.1305118317
  C        10.2686164963        3.6422923975        5.9482424484
  H        11.2305742801        4.0091353246       10.8581798870
  H        12.1335543311        3.4102267364        9.5949663535
  C        12.5576075251        2.5208399042       11.3954652325
  C         7.3169255951        6.6248114283       12.6230599202
  C        10.1560526615        5.0047994738        5.7914416081
  H         9.7983603645        6.7242444364        7.0666600606
  C        10.7136839973        3.1837027719        4.7132277098
  H        13.3637969900        3.1913720740       11.3417352874
  H        13.0622926398        1.5606381940       11.1130788595
  C        12.0998726705        2.6019785166       12.8185205350
  C         7.4624789937        8.0289620955       12.9467877741
  C         6.7946854574        5.8313499828       13.7288677774
  C        10.4725179674        5.5870578190        4.4754396787
  C        10.7307615120        4.2143835747        3.8207507285
  S        11.0794165512        1.6479807574        4.0044672814
  H        12.4383816223        3.6042277343       13.1563004087
  H        11.0535856755        2.5795950846       12.8572617561
  C        12.7238554102        1.5363024681       13.8372944970
  N         8.0092839474        9.0506257889       12.0980348637
  C         7.1990756157        8.5940565273       14.2204538779
  C         6.5903505620        6.3483835907       15.0031736071
  H         6.5873701112        4.7959774594       13.5027538366
  C        11.8342055893        6.3183808308        4.6333779469
  C         9.3085710011        6.4470764607        3.9702642831
  C        11.0165159845        3.7657285796        2.5051162481
  C        11.1249785104        2.3812823329        2.4169533775
  H        13.8230928337        1.8254953019       13.8988891820
  H        12.7396241925        0.5357967977       13.5094655918
  C        12.1120905409        1.5973202467       15.2349436702
  S         7.9653640991       10.5629256526       12.8036784513
  N         7.3257447395       10.0170260937       14.2322626511
  C         6.7686898465        7.7734384359       15.2988341658
  H         6.3912079229        5.6685165372       15.8217946137
  H        11.7597493291        7.3045487735        5.0508508429
  H        12.2368869551        6.5952295570        3.6503247856
  C        12.8910552682        5.4276179518        5.3351918046
  H         9.1319538304        7.2988110083        4.6897277797
  H         9.6810142280        6.8979010985        3.0384947513
  C         8.0208425271        5.7295471895        3.8331381442
  H        11.0877811298        4.4520178791        1.6860004441
  C        11.3056180981        1.6623505140        1.1110252486
  H        11.1333506438        2.0854127372       15.0869159568
  H        12.0820131519        0.5940269128       15.5433910667
  C        12.9039099536        2.3778373619       16.1873151001
  C         6.6846242208        8.3471924759       16.5782586267
  H        12.6014193804        4.9249312691        6.2113353747
  H        13.1497406449        4.6175172297        4.7141524971
  C        14.2030634897        6.1371934208        5.5522157472
  H         7.5683579493        5.2209642473        4.6596249103
  H         8.2287927351        5.0161007711        3.0517607740
  C         6.8917163562        6.6185937453        3.3574150615
  C        11.5803661284        0.2396537344        1.0646306451
  C        11.5605609686        2.3512130307       -0.1540387419
  H        12.7599660686        3.4820610899       15.9752466660
  H        13.8915669169        1.9562825737       16.0782361734
  C        12.3277569269        2.1844836051       17.6222515857
  H         7.0329988591        9.3649890285       16.5989677738
  C         6.3373087906        7.9416817545       17.8043236368
  H        14.1323514903        6.9762417969        6.1871567483
  H        14.5637948244        6.6454032917        4.6734462991
  C        15.3099904589        5.3218379934        6.0918018437
  H         6.6916714663        7.2850727317        4.1818424300
  H         7.1485641364        7.2141508952        2.4194798793
  C         5.6921048603        5.7290299876        3.1068994371
  N        11.3465479840       -0.6173755651        2.1286765401
  C        12.0235127315       -0.3863033695       -0.0529639384
  C        12.0172239196        1.7291577652       -1.3197106251
  H        11.2669837669        3.4035358069       -0.1502659844
  H        12.4326616356        3.0614243635       18.3250433326
  H        12.7924836943        1.3311753336       18.1386246824
  H        11.2310772955        1.9099515553       17.5690247292
  S         5.9464543287        6.3508933730       18.3907914917
  C         6.3900382101        8.9993210258       18.8386967826
  H        15.0687274198        4.8231425470        7.0177726689
  H        15.6795228258        4.6490518309        5.3436518676
  C        16.4191445818        6.2914016564        6.5176157739
  H         5.3626731969        5.3192081957        4.1086716669
  H         6.0581733533        4.9041196875        2.5046020348
  C         4.4385516892        6.3870731782        2.5154323468
  S        11.7299802339       -2.1268099343        1.5706242751
  N        12.0452316085       -1.7764344014        0.0576568005
  C        12.3232603253        0.2775697292       -1.2637052635
  H        12.2177916569        2.3983627435       -2.1598385197
  C         5.9993111369        7.0708121023       19.9801320022
  N         6.0689054178        8.4381002856       20.0486817433
  O         6.3621926973       10.2162033384       18.5629494528
  H        16.5320468099        7.1279293736        5.7936476686
  H        16.1204912626        6.7621996207        7.3944038234
  C        17.6993322085        5.5868746465        6.9478898002
  H         4.4596987105        6.5266031144        1.4258643381
  H         3.6054972187        5.7063898844        2.8231708551
  C         4.0168360142        7.6610325520        3.2663320573
  C        12.7516856000       -0.5067360985       -2.3987835196
  S         5.6923714875        6.1808617909       21.5408499324
  C         6.2135723797        9.2637239999       21.2371762311
  H        17.8391211111        5.8620455666        7.9940716675
  H        17.5650260293        4.4865430423        7.0032937354
  C        18.8941959300        5.8272883544        6.0509620734
  H         4.4913976292        7.6453074733        4.2304130388
  H         2.9804821949        7.7225295885        3.5326604618
  C         4.5220504432        8.9438137172        2.5638218769
  H        12.9023299679       -1.5154610581       -2.1027439485
  C        13.1065897505       -0.1856180942       -3.7140821439
  H         5.4984948915        8.9896770205       21.9609125597
  H         5.9836519722       10.3216116423       21.0086260070
  C         7.6853954470        9.2120459984       21.8780658792
  H        18.8519356047        6.8920529683        5.7533033492
  H        18.8973787726        5.1655110194        5.1531331272
  C        20.1312727198        5.4977660115        6.8618251271
  H         4.8171782131        9.6939054775        3.2694115044
  H         5.4537853440        8.7147422098        2.0273413349
  C         3.3755002657        9.5810005720        1.6650178053
  S        13.3485882988        1.3079828230       -4.2536701311
  C        13.2808969742       -1.2650134795       -4.6383811262
  H         7.8223420204        9.9605582219       22.6296293558
  H         8.4498998034        9.4127723198       21.0818768529
  H         7.7924085900        8.2178076264       22.3073137355
  H        20.1123219682        4.4891597461        7.1746576842
  H        21.1966102319        5.7047515773        6.4524634840
  H        20.0294611052        6.1015512545        7.7745776705
  H         2.4989282799        8.8981470610        1.5448301761
  H         3.0035767879       10.5259798182        2.1985009976
  H         3.7978630886        9.8974020693        0.7113917469
  C        13.7917806582        0.6227158452       -5.7927268089
  N        13.7534597758       -0.7546599535       -5.8280317704
  O        13.0703870764       -2.4290193038       -4.3088725016
  S        14.3604046166        1.6151667746       -7.1931452943
  C        14.0264618206       -1.4472454232       -7.0565952875
  H        14.5670736897       -2.3357713567       -6.7798951056
  H        14.5903007191       -0.9620011253       -7.8272729113
  C        12.7234763006       -1.7972628368       -7.7307451212
  H        12.2097066015       -2.3769375287       -7.0223142394
  H        12.8895267648       -2.5084624347       -8.5836811071
  H        12.1758149255       -0.9270012060       -8.0184351397
