352
 i =    19400, time =     9700.000, E =       100.4278530058
  H        10.0255473776        4.8796695758       31.8281397458
  C        10.3271939909        5.7840189378       32.3299136320
  H         9.3932934721        6.0262263077       32.7231912310
  C        10.8477144920        6.7710056811       31.3167034205
  C        11.2258872303        5.3858311561       33.5244119849
  C        11.3481663528        6.1450029593       29.9748733684
  H        10.0844868066        7.5079969203       31.0625710956
  H        11.6572861182        7.2390003954       31.8227006702
  H        11.5240004995        6.2019022465       34.3013924334
  H        10.6866108393        4.6137518884       34.0642418854
  H        12.1460728474        4.9616769729       33.0519093399
  C        10.2214433618        5.9551690203       28.8466563365
  H        12.0272480757        5.3575135274       30.2941091059
  H        12.0959882024        6.8340936643       29.6069046953
  C        10.8181646090        5.5406182613       27.5346135608
  H         9.4682930129        5.2356882904       29.1829789518
  H         9.6247661399        6.9012542812       28.6916582219
  C         9.7973759159        4.8873064723       26.5918096792
  H        11.6826975451        4.9479465544       27.7534222738
  H        11.3086561224        6.3966761250       27.0260264747
  C         8.5671174466        5.7108267469       26.2744522829
  H        10.2268148890        4.7168693767       25.7305792304
  H         9.5439848717        3.8706256328       26.9600921962
  C         7.3891001341        4.9671715113       25.5506635157
  H         8.2740782876        6.2866785388       27.1740896331
  H         8.9458399156        6.5466539459       25.5955420892
  C         6.9826992346        3.6492746700       26.2712933931
  C         7.7602634060        4.2921326024       24.3190039550
  C         6.0663496759        5.8699176305       25.5076887489
  C         6.9668932126        2.5693255074       25.3473826350
  C         6.4846498403        3.3018303291       27.4897104049
  C         7.5059974700        2.9645983324       24.1353510981
  C         8.2761316650        4.8896494745       23.1990663365
  H         6.2055138717        6.6354834702       24.8047127519
  H         6.0681148507        6.3911875392       26.4915995281
  C         4.8046752757        5.0883708436       25.2326057675
  S         6.4801778819        1.1013362004       26.0732156802
  C         6.1904193689        1.9285942391       27.5434507910
  H         6.3637203658        3.9704445576       28.2516701179
  C         7.8560391811        2.3260283789       22.9656341414
  H         8.5894286887        5.8737161629       23.2685333647
  C         8.5084004123        4.2751636494       21.9766072705
  H         4.8483124631        4.5651045829       24.3169073866
  H         4.5766661398        4.3497551943       26.0521402688
  C         3.5912809040        6.0259419644       25.1049263495
  C         5.7720357146        1.2245566431       28.8113896362
  C         8.3778242217        2.9528214047       21.7747927080
  H         7.6276222008        1.3039081145       22.8597872664
  C         9.0924726129        4.6710194662       20.7746410676
  H         2.8081126173        5.5475979740       24.5717209479
  H         3.8584067625        6.8397882228       24.4215567632
  C         3.0771161933        6.5148374263       26.3850479297
  C         5.8999754370       -0.1719200373       28.9935388179
  C         5.2777023546        2.0248453920       29.9731595621
  C         8.7749217134        2.3058545444       20.5300967391
  C         9.2792524744        3.6118684727       19.8635703258
  S         9.3846861528        6.2252040362       20.0604718767
  H         2.6467442351        7.5231854248       26.1620274053
  H         3.8569318182        6.6057208722       27.1566613174
  C         1.8950474624        5.7457066418       26.9516100369
  N         6.1072729546       -1.1067125689       27.9999088983
  C         5.7286842558       -0.7611065163       30.2046971805
  C         5.0077848628        1.3867045689       31.1637426803
  H         5.1319703300        3.0830040775       29.8459628040
  C         7.6003997190        1.6090076937       19.8331215248
  C         9.9893210974        1.3836063836       20.6643251158
  C         9.5807946924        4.1021268331       18.6124048232
  C         9.7048209326        5.4536142237       18.5305682569
  H         1.0269603909        6.2956485695       26.6460560174
  H         1.8548321773        4.7502011324       26.7459612051
  C         1.9893831865        5.6333636240       28.4014458005
  S         6.2012072127       -2.5685016540       28.6413475881
  N         5.9657363199       -2.1278608322       30.1875523500
  C         5.3442655793       -0.0653053011       31.3642352628
  H         4.5856639506        2.0079004646       31.8929350121
  H         7.2503977315        0.8377804264       20.4523350440
  H         7.9015137483        1.0651287306       18.9203483752
  C         6.5074754539        2.5474583487       19.4956378134
  H        10.2054021842        0.8792239501       19.6871034845
  H         9.5691034463        0.6940808485       21.3732055515
  C        11.2725564064        1.9667397088       21.2834898846
  H         9.5866063690        3.4287036047       17.7708956925
  C         9.9384713391        6.2247218493       17.2258381413
  H         2.5064954510        6.5605869377       28.7869960493
  H         2.6636430633        4.9201410036       28.6960172773
  C         0.5854440082        5.3504459986       29.0125792894
  C         5.1332080658       -0.7463929676       32.5871583215
  H         6.9608298143        3.3509632078       18.9081987806
  H         6.1140216793        3.1035214635       20.3741624647
  C         5.2928416497        1.8744018684       18.8950706648
  H        10.8868976272        2.2508855298       22.2740508784
  H        11.6930934667        2.8759735083       20.7939850015
  C        12.3019578072        0.8349389506       21.3532306641
  C        10.0838114672        7.6402126964       17.0942020185
  C        10.1691382891        5.4770926613       15.9748508333
  H        -0.1232029805        5.9678110474       28.5305240756
  H         0.3301164588        4.2927222894       29.0887240396
  C         0.7040612369        5.8250236264       30.4539804813
  H         5.4882907242       -1.7238598144       32.5390883111
  C         4.8807712560       -0.3340326184       33.8773325554
  H         4.7915835201        1.1074948940       19.5540153239
  H         5.6596215179        1.3207013630       17.9988292394
  C         4.3596701902        2.9684052378       18.3843325011
  H        12.0444769682        0.2238542318       22.2389350249
  H        12.3596047317        0.1602630296       20.4995170720
  C        13.7168550883        1.3661571012       21.7076915058
  N         9.8497959243        8.5201717317       18.1779286692
  C        10.2975050673        8.3239593119       15.8928317684
  C        10.4092027726        6.1739711771       14.7903451682
  H        10.3060297823        4.4578925717       15.9377762889
  H        -0.1608090369        5.7462055553       31.1343696541
  H         1.6410388291        5.4266320449       30.8226906225
  H         0.8935825146        6.9223012447       30.4888727485
  S         4.5486766013        1.3186697735       34.3805546855
  C         4.8596140182       -1.3834310802       34.9729684324
  H         4.4651758209        3.8426000833       19.0387083512
  H         4.6841959698        3.1634736021       17.3652037626
  C         2.9404809113        2.3229770555       18.3817493756
  H        13.9957465155        2.1240291998       20.9504527553
  H        14.4563076013        0.6255357151       21.5140103970
  C        13.8751632043        1.9389666652       23.1010657524
  S        10.0268426746       10.0803289928       17.6748399182
  N        10.3987116937        9.7314071435       16.0883923183
  C        10.4981760869        7.6738869657       14.6852909662
  H        10.5818609045        5.5604576292       13.9193902385
  C         4.4423514436        0.6375381001       36.0677594318
  N         4.5320211225       -0.7048157469       36.1404876673
  O         4.8437895706       -2.5716391771       34.7905393635
  H         2.1848894541        3.0548782353       17.9900373048
  H         2.7123241528        2.0713869269       19.4852847964
  C         2.7131095992        1.1412875316       17.5143041010
  H        12.9785485680        2.5252571942       23.2862851977
  H        13.8557454633        1.2227813790       23.9185813245
  C        15.1043263188        2.8275035238       23.1916466466
  C        10.8251652501        8.3776086937       13.4820110723
  S         4.0459263362        1.4823852829       37.5382530779
  C         4.5363980862       -1.4823724782       37.4208019292
  H         2.1542136458        1.4240260138       16.6397595634
  H         3.6175033505        0.7796121671       17.0126202194
  C         2.0736600683        0.0181020917       18.3304929023
  H        15.0226174119        3.6203490805       23.9731165345
  H        15.1809631111        3.4003809189       22.2639947550
  C        16.4119137302        2.1459542075       23.5627946201
  H        10.6595271327        9.3976449664       13.4461750347
  C        11.3163754056        7.9972334843       12.2688387086
  H         3.7931814695       -0.9744808255       38.0139612505
  H         3.9897675389       -2.4647668427       37.4447414037
  C         5.9472960313       -1.3649820251       38.0153201623
  H         1.3151910476        0.5451747790       18.8776479563
  H         2.8268508323       -0.3970539617       18.9886677678
  C         1.4220844909       -1.0725949336       17.4003760373
  H        16.8908706757        2.7860012995       24.3298119326
  H        16.3012714527        1.1604846959       24.0560706832
  C        17.2753412852        1.9811153229       22.2939285486
  S        11.9335170658        6.3982964050       11.9449061482
  C        11.3777542554        8.9627864395       11.1924335113
  H         6.7227848676       -1.0770235579       37.3002239810
  H         5.7885043523       -0.5765344136       38.7418036363
  H         6.2701052293       -2.2014031990       38.6488023318
  H         1.3115247570       -1.9946826230       17.8443858734
  H         2.0028367404       -1.3012096534       16.5236282016
  H         0.4561348042       -0.7371777701       17.0579927001
  H        16.9433700381        1.0633570364       21.7789380527
  H        18.3493109441        1.9888840335       22.5672201578
  H        17.1262482627        2.8606795823       21.6764048064
  C        12.4704782175        7.0172713953       10.4472032663
  N        12.0324749804        8.2933961634       10.1885770438
  O        10.9888318039       10.1464753995       11.2134472103
  S        13.2799752227        6.1223553556        9.1516604394
  C        12.3575215500        9.0220982686        9.0529830101
  H        12.5217618471       10.0068977315        9.3096219045
  H        13.2593830017        8.5850327667        8.6405310568
  C        11.3001433566        8.8173332278        7.9698473177
  H        11.3562984046        9.7239099687        7.3409015441
  H        11.4905980196        7.9283567456        7.5228023881
  H        10.2623963260        8.8054340758        8.3734810409
  H         5.0984021387        1.6749439081       12.4111419322
  C         4.2769513491        2.3335488965       12.6405108594
  H         4.7657983489        3.3069048432       12.6532951830
  C         3.2510822137        2.4682760137       11.4760190606
  C         3.7132906547        2.1362857133       14.0268788240
  C         3.9401943840        2.8562634196       10.1690294020
  H         2.4775017165        3.1672700889       11.7150702471
  H         2.7303913190        1.5377206731       11.2968881239
  H         3.3686507912        1.0764408771       14.1639317027
  H         2.9462665066        2.8869156206       14.2346470866
  H         4.5905043857        2.1759757374       14.7058376674
  C         4.5856574108        1.5855114435        9.6412680961
  H         3.1556018393        3.2353752455        9.5050563978
  H         4.6193652250        3.7024105126       10.3611579717
  C         5.2549155790        1.7651024311        8.1979898872
  H         3.7786794874        0.8086239832        9.4002132494
  H         5.2600843792        1.0030268284       10.3010689389
  C         6.5156922765        2.6331810679        8.2500380098
  H         4.5345164817        2.1113919827        7.4431571367
  H         5.5644241753        0.8002981341        7.7384607171
  C         7.7083686156        1.8525926307        8.8213599485
  H         6.7468415990        2.9281306897        7.2534409608
  H         6.2832345758        3.4951973588        8.8093224836
  C         8.9174584090        2.8310984119        9.2256056974
  H         8.1693466953        1.1520430422        8.1517757460
  H         7.5071395854        1.2774192831        9.7146737753
  C         8.5486428370        4.1933562795        9.9059914947
  C         9.5133589611        3.5269073476        8.0261866816
  C         9.9342465763        2.1289673728       10.0964788699
  C         8.9217239644        5.2724041340        9.1830537058
  C         7.9699670784        4.5477232602       11.1280701869
  C         9.5110596062        4.8827395068        7.9637049741
  C         9.9373808166        2.8459947574        6.8481222123
  H         9.5002322896        1.7981781323       11.0392437968
  H        10.3257091048        1.2435829948        9.5937108629
  C        11.1018051370        3.0249060486       10.5004614362
  S         8.5897828624        6.7340295403       10.0094748920
  C         7.9643110789        5.8941968076       11.3213662142
  H         7.8105574905        3.7606311314       11.8436006772
  C        10.0207209352        5.4456790617        6.8226001533
  H         9.8671267163        1.7928724745        6.8534590934
  C        10.3720623151        3.4610951162        5.7021546038
  H        10.6786153818        3.8594782334       11.1277409567
  H        11.6641435688        3.4492371459        9.6655133438
  C        12.0876028158        2.2510061853       11.3967722030
  C         7.5166317472        6.5287312552       12.6578827390
  C        10.3230182040        4.8092901878        5.6084043117
  H        10.0517426960        6.5642888738        6.8062588860
  C        10.8612912543        3.0331672851        4.5260596648
  H        13.0636702326        2.7224039280       11.4061622149
  H        12.3554978048        1.2977455352       11.0321910470
  C        11.7228679422        2.1594291040       12.8970438863
  C         7.4799409882        7.9078335344       12.9222826291
  C         7.1605492824        5.6298205198       13.8040807390
  C        10.7942382218        5.4498285742        4.3420864322
  C        10.9804141390        4.1296766087        3.6707499431
  S        11.2256089387        1.5264479782        3.7188245354
  H        11.4583724479        3.1770112653       13.1789457049
  H        10.8469655583        1.5109396961       12.8902169040
  C        12.8579444427        1.7923594579       13.8619365246
  N         7.7308063707        8.8972753133       11.9460839264
  C         7.3149930413        8.4521419112       14.1839311262
  C         6.9330181399        6.1906455021       15.0910150792
  H         6.9786035367        4.5813632419       13.6553685695
  C        12.0966189621        6.2398095354        4.4775876241
  C         9.6422151077        6.2461360886        3.7571522976
  C        11.2418945901        3.6823387496        2.3050131310
  C        11.4796920755        2.3165419638        2.2470834694
  H        13.2674879640        2.7268344325       14.2457194039
  H        13.7258107418        1.1963123189       13.4330736069
  C        12.3555266507        0.8406975007       14.9550344148
  S         7.8045644437       10.3482133873       12.6938795992
  N         7.4907552093        9.8244367132       14.2268801379
  C         6.9457692066        7.6566599213       15.3115554751
  H         6.7053985059        5.5685164497       15.9336964955
  H        11.9845799131        6.9536823050        5.3517810423
  H        12.1768907601        6.9304120763        3.6025232853
  C        13.3023686247        5.4216244467        4.7508069507
  H         9.4187933680        7.0202525036        4.4845085497
  H        10.1386511713        6.8699536659        2.9659666409
  C         8.4185462593        5.5392020508        3.1833871294
  H        11.3422268964        4.4402017130        1.5239949604
  C        11.7053328103        1.5730644793        0.9370336218
  H        11.6457951003        0.1938800662       14.5426989045
  H        13.1449834806        0.2210405064       15.2893820643
  C        11.7281772158        1.5670776140       16.0824621755
  C         6.7242005611        8.3447765828       16.5564350600
  H        13.1871384804        4.8710374974        5.7347682700
  H        13.4609314974        4.7590879726        3.9670209572
  C        14.5756912987        6.2931872253        4.9059836092
  H         7.9651172528        4.9970929944        4.0080083205
  H         8.5997408900        4.7454870769        2.4814627378
  C         7.5052227876        6.4347805226        2.3685369388
  C        11.7371104830        0.1910359135        0.8857526526
  C        12.0024494502        2.2651665771       -0.3109042265
  H        11.1456583593        0.9034673573       16.7475027790
  H        10.9259447077        2.2542217451       15.7465052332
  C        12.7255981522        2.4084336046       16.8743949988
  H         6.8224020333        9.3885200332       16.5740509235
  C         6.4146129869        7.9219647296       17.8039855532
  H        14.4056837956        7.1511964080        5.5681142214
  H        14.7602484234        6.8713458921        3.9565454245
  C        15.7546831847        5.3911962094        5.4666432371
  H         7.1977163977        7.2244535135        2.9950425661
  H         8.0609029600        6.9400506185        1.5479260579
  C         6.3183099723        5.6455583837        1.7915034121
  N        11.6224816629       -0.7014719961        1.9593237579
  C        12.1799977048       -0.4486450132       -0.2684168458
  C        12.3706700271        1.6441404921       -1.4836332142
  H        11.9836297671        3.3214240823       -0.3405161247
  H        13.6989798321        2.3223129405       16.5083277199
  H        12.6720268392        1.9560309984       17.9234600592
  H        12.5400849093        3.4841118746       16.7803114448
  S         6.2205879055        6.2837721793       18.3046490695
  C         6.2720854641        8.9072547410       18.9338778719
  H        15.4224507615        4.4327540266        5.9059854117
  H        16.1875609540        5.1865844794        4.5482288836
  C        16.6689058585        6.1480453613        6.4107874088
  H         5.7925204860        5.1197174796        2.5783358744
  H         6.7737749146        4.9073614850        1.1382660026
  C         5.2822193932        6.5602571971        1.0606565940
  S        11.7151561789       -2.2176773567        1.3153033542
  N        12.2208211779       -1.7984511735       -0.1137530013
  C        12.4469250398        0.1318272433       -1.5254604647
  H        12.4470027931        2.3035968887       -2.2733309215
  C         6.0615319007        6.8989517179       19.9098425352
  N         6.1109136592        8.2444797737       20.0413293547
  O         6.2018167875       10.1105513578       18.7408845163
  H        17.1687353576        7.0121374536        6.0269416502
  H        16.0242589807        6.4777630393        7.2133881492
  C        17.7020376324        5.1806535625        7.0461370747
  H         5.7965166511        7.0979442138        0.2705424137
  H         4.4222871448        6.0217509962        0.5517851267
  C         4.8033125055        7.6610435899        1.9311510512
  C        12.6847981239       -0.6557401675       -2.6552982197
  S         5.5618027309        5.9043233493       21.3339481188
  C         6.1078121214        8.9766578192       21.2818103163
  H        17.3918430511        4.7220457367        8.0328332998
  H        17.7826201631        4.3151502010        6.4088782996
  C        19.0358513920        5.8590114246        7.2045315455
  H         5.4713866874        8.4510304569        1.9996478156
  H         4.4542622139        7.4579927412        2.9228605494
  C         3.6298065483        8.3979331583        1.2229695465
  H        12.5514956865       -1.7228583289       -2.6086089802
  C        13.1716482048       -0.2722926505       -3.9071063724
  H         5.3558033799        8.5465313913       21.9392604173
  H         5.6658470454        9.9845175591       21.1843709204
  C         7.4455231884        9.0957482841       21.9271114493
  H        19.7626371982        5.4924653439        7.9152700846
  H        18.6905814506        6.8429093731        7.4007324952
  C        19.7293602816        5.8980460413        5.8874803412
  H         3.7777132804        8.3055905613        0.1254603103
  H         2.7002116618        7.9218417437        1.5243446859
  C         3.5389630826        9.8135117184        1.6304320529
  S        13.6820972398        1.2501038083       -4.4417932376
  C        13.2945149099       -1.3830947764       -4.8856136523
  H         7.5796087387        8.3116428022       22.7013140681
  H         7.4897149130        9.9981828195       22.4609465806
  H         8.3681594038        9.1016289374       21.3252836643
  H        20.3514188817        4.9894914066        5.7775445950
  H        18.9762329766        6.0737106852        5.0609243072
  H        20.4844492098        6.6597918379        5.8959791963
  H         2.9378644437        9.9954439346        2.5535310613
  H         4.4798824336       10.2325360453        1.8555150270
  H         3.2153104911       10.4594486900        0.8892005673
  C        13.8777524816        0.4631298238       -5.9916843705
  N        13.7358899149       -0.9142464835       -6.0116186591
  O        12.9136926397       -2.5498348988       -4.6791515833
  S        14.2385029049        1.1786054572       -7.5308322983
  C        13.7133039486       -1.6881270068       -7.2541550982
  H        13.8626608226       -2.7572750406       -6.9773426581
  H        14.5043323129       -1.4793192138       -7.8848000718
  C        12.3176948233       -1.5307032097       -7.9278685389
  H        12.3486611114       -0.6864384286       -8.6099886966
  H        11.5489894319       -1.4523767705       -7.2141051228
  H        11.9565285847       -2.4064867493       -8.5120929517
