352
 i =    53100, time =    26550.000, E =       100.1803219919
  H        10.1027914222        4.2192778829       31.6791053462
  C        10.3229469214        5.2637099441       32.0140963187
  H         9.3780857557        5.6300657609       32.3130926523
  C        10.8363561571        6.1672379608       30.9191452580
  C        11.2282388194        5.1259527486       33.2185111460
  C        11.4846201446        5.3369198824       29.8393460699
  H         9.9468413851        6.6214645270       30.5034104297
  H        11.4151378993        6.9298650800       31.3354196883
  H        12.2048200969        4.6635898479       33.0386755545
  H        11.4359008206        6.1080270639       33.5986256173
  H        10.8023220479        4.3964783549       33.9907312869
  C        10.5848391513        4.6055785426       28.7961490768
  H        12.2589714235        4.5160853996       30.1232856695
  H        12.0197194060        6.0096732860       29.1884188537
  C        10.9210832759        4.8984016830       27.3192466302
  H        10.5224285387        3.5143424543       28.9327569230
  H         9.6018073898        4.9276164381       29.0621170848
  C         9.8405951411        4.3191707173       26.3695324548
  H        11.8517878589        4.4267038042       27.0625847951
  H        11.0594716136        5.9808488154       27.3120675153
  C         8.6017682939        5.2492858509       26.1931941904
  H        10.1765048636        3.9765048837       25.3754208615
  H         9.5393957738        3.2986871296       26.7992359762
  C         7.4500909773        4.5525947417       25.5434704842
  H         8.3203841943        5.6377314651       27.1597166806
  H         8.8707552338        6.1778546953       25.5936106191
  C         7.0655739704        3.1962498787       26.1592164879
  C         7.8435443240        3.9102963696       24.2534548498
  C         6.1794074825        5.4765634926       25.5669789951
  C         7.1363959800        2.1449704501       25.3031647449
  C         6.6069598113        2.8165055205       27.4389833528
  C         7.7526742635        2.5551687073       24.0828790154
  C         8.3228033534        4.5788066124       23.1343219267
  H         6.5205690611        6.4045649932       25.1038623037
  H         5.8102554188        5.6227140032       26.5868122289
  C         4.9215660035        4.8497362670       24.8065167015
  S         6.6123896362        0.6421393339       26.0591219602
  C         6.2736742643        1.4885063850       27.5313540221
  H         6.4153919824        3.6129915150       28.1441821840
  C         8.0627378436        1.9719217684       22.8886663065
  H         8.3744058835        5.6610905482       23.2084582505
  C         8.5889848565        4.0136340839       21.9443967971
  H         5.3461563658        4.6851635605       23.8052140586
  H         4.6575769504        3.8660942759       25.2088626823
  C         3.7864705393        5.9163083530       24.8309152036
  C         5.8268595797        0.7604002221       28.7895257600
  C         8.5015281240        2.6999833789       21.7285213553
  H         7.8876925384        0.9464664185       22.7645345660
  C         8.9372205656        4.4299155565       20.6737356891
  H         3.0374461453        5.7166763602       24.1028615472
  H         4.1146613283        6.7677826427       24.3791159510
  C         3.0778713496        6.1431795408       26.1754822398
  C         5.8612689682       -0.6120175562       29.0771173451
  C         5.3792093144        1.6375186590       29.9170734813
  C         8.9169081067        2.0625759751       20.4196292920
  C         9.1264273180        3.4210909825       19.7774408617
  S         9.1650660336        5.9753707788       20.0066570636
  H         2.3446815305        6.9353534805       26.0783420922
  H         3.8039973526        6.6697868790       26.8348322197
  C         2.3889524596        4.8633878293       26.7155627040
  N         6.4391959013       -1.5253058178       28.2066862543
  C         5.6512876411       -1.1752074725       30.3477179508
  C         5.0995175409        1.0512351628       31.1487944659
  H         5.3786719652        2.6992114663       29.7808701146
  C         7.8248824643        1.1766549657       19.7633488261
  C        10.1478382440        1.2095210014       20.6876695257
  C         9.4652438828        3.8571500445       18.4883824966
  C         9.4989349249        5.2198465238       18.4533844372
  H         1.6228841075        4.6825396525       26.0110228381
  H         2.8750255401        3.8803338011       26.5816300389
  C         1.9809902733        4.9515761142       28.1618344865
  S         6.4140301940       -2.9681928893       28.9032654781
  N         5.7980178644       -2.5670940851       30.3714724993
  C         5.2310369400       -0.4129587196       31.4137016397
  H         4.7375764029        1.7315785539       31.8784529271
  H         7.7744797084        0.3258433804       20.3882951211
  H         8.1324561431        0.8515883913       18.8032813567
  C         6.4413639684        1.8413043722       19.5495803471
  H        10.3565077156        0.5728123048       19.8163893581
  H         9.9057700510        0.4888511690       21.4903911053
  C        11.4227174042        2.0158140804       20.9353477410
  H         9.5654046089        3.0888432598       17.7702711749
  C         9.7737993971        5.9867897520       17.1972937581
  H         1.1640575738        4.2771865886       28.3905060348
  H         1.5304231843        5.9083305355       28.3211471370
  C         3.1578619535        4.6664824604       29.0606211715
  C         5.0281502009       -1.1525774025       32.6382592720
  H         6.5472088485        2.8847175788       19.7605364467
  H         5.6945526139        1.4597347844       20.2475163542
  C         5.8543982471        1.7573480112       18.1195957065
  H        11.3049206710        2.6986629587       21.7925808850
  H        11.6315677249        2.5943637114       20.0181433248
  C        12.6292254230        1.1515756401       21.1304404585
  C         9.8508250287        7.4012818293       17.0469407051
  C        10.2499401340        5.2777118062       15.9882432499
  H         3.6339073541        3.7061700070       28.7693500679
  H         3.8987422512        5.4339181826       28.9468089747
  C         2.7849905035        4.5361264604       30.4935198832
  H         5.2169658495       -2.1888618880       32.6166181340
  C         4.7314790403       -0.7450287865       33.8986452295
  H         5.9854742794        0.7599096449       17.6537212825
  H         6.2994862997        2.4487535963       17.4364848291
  C         4.3138028057        2.0206384912       18.1671709164
  H        12.7015318087        0.5115560103       22.0230660477
  H        12.6947145878        0.4677419593       20.2887554072
  C        13.8842650760        2.0370814206       21.0496972164
  N         9.6607291074        8.2982325506       18.1126815635
  C        10.2023031025        8.0197650107       15.8670868245
  C        10.5544120793        5.8947457574       14.8301378338
  H        10.2687685933        4.2037336478       16.0202853654
  H         3.6570717282        4.1963521313       31.0436503047
  H         2.3803022157        5.5445096315       30.9128713300
  H         1.9828595925        3.8213973512       30.6110897268
  S         4.4096552760        0.8447906971       34.3229850791
  C         4.7659241983       -1.7743382021       34.9838637394
  H         4.1178504664        2.7579667945       18.9618170185
  H         3.9478735484        2.4814856363       17.2123911299
  C         3.4862171251        0.7803937975       18.6439050298
  H        13.7341071145        2.8680693312       21.7874740798
  H        13.9484070619        2.6598652156       20.1786652698
  C        15.1601716578        1.2234683738       21.1793248885
  S         9.7235888661        9.8487070918       17.5535705876
  N        10.1663147005        9.4561893450       16.0159765879
  C        10.3813025852        7.3394375738       14.6404190701
  H        10.8264992741        5.2729767352       13.8849554450
  C         4.2222544915        0.1585552219       35.9596348339
  N         4.3651626805       -1.1549482115       36.0864661669
  O         4.9571397344       -2.9674381099       34.6923851680
  H         2.4270084137        1.0372818667       18.9675610532
  H         3.8613350337        0.3672535676       19.5711506722
  C         3.2169352393       -0.3432608098       17.6610639789
  H        15.1401780823        0.5297904054       21.9467345187
  H        15.3922561022        0.7042862651       20.2405450064
  C        16.3588217646        2.2201696914       21.3222139453
  C        10.7260540700        8.0246908241       13.4639468447
  S         3.7660952982        1.1090057809       37.3954116940
  C         4.2432376177       -1.8535066163       37.3845830548
  H         2.6262151436        0.0348861424       16.7817569309
  H         4.1334365846       -0.5941349217       17.1851020923
  C         2.4060809114       -1.5906775148       18.2056277995
  H        16.1784184115        3.2019834856       21.6738248725
  H        16.7706104606        2.4134346729       20.3109742282
  C        17.4382540134        1.5375935620       22.2310389780
  H        10.3300652361        8.9580864212       13.5346421298
  C        11.4899669530        7.7529491058       12.3824420705
  H         3.2960278043       -1.6070873514       37.8912483414
  H         4.2247822500       -2.9305446283       37.1248405148
  C         5.5154449775       -1.8173799171       38.3081866060
  H         1.3755366250       -1.3066423728       18.7092285474
  H         3.0959691454       -1.8740339376       19.0524637970
  C         2.3238477914       -2.7584171521       17.1683802249
  H        17.8406810831        0.6116773465       21.6957639591
  H        18.3467567051        2.1041456776       22.1990455619
  C        17.0366027753        1.3311553852       23.6960337177
  S        12.3741773717        6.3782637110       11.9072892267
  C        11.4064708506        8.7972317445       11.2892419868
  H         6.3063351358       -1.1879836870       37.9775494523
  H         5.1719978088       -1.5069638245       39.2840809766
  H         5.8165702201       -2.9121367584       38.2844911728
  H         1.6453654623       -3.4398499214       17.4511186877
  H         3.2857755014       -3.2450757666       17.1397908833
  H         2.0021712641       -2.3056860958       16.2814713945
  H        17.8554183957        1.4721472753       24.3651649651
  H        16.7035631863        0.3192611541       23.7888766161
  H        16.3258503557        2.2148853422       23.9217598281
  C        12.4137147581        7.0981907497       10.3189962871
  N        12.1146364328        8.3848107068       10.2142468033
  O        10.8434349870        9.7928256286       11.4401377063
  S        13.2609917567        6.3110787637        8.9951542502
  C        12.1045704333        9.1627319874        8.9110075631
  H        12.2756092489       10.2300255258        9.1866957470
  H        13.0447768124        8.9606433888        8.3787262645
  C        10.8697081806        8.9359846287        7.9866572330
  H        11.1100495013        8.0376474524        7.4873425680
  H         9.9631792830        8.8393181965        8.5779060120
  H        10.8052770892        9.7462360721        7.2620936466
  H         4.6490858373        1.3178472839       12.8664086140
  C         4.1260374837        2.3261408531       12.8466382422
  H         4.9771359149        2.9869253017       12.7831320678
  C         3.2162100509        2.5648988700       11.5769209211
  C         3.2518358103        2.3854813310       14.1765165085
  C         3.9615905209        2.5474151241       10.2581621787
  H         2.9266813021        3.6012047335       11.6663280490
  H         2.3013121870        1.9890442531       11.6125590038
  H         2.8093264130        3.3383612537       14.4396807737
  H         3.8495316251        2.2027822024       15.0403703689
  H         2.5708312553        1.5807048323       14.2774887943
  C         4.8022603625        1.2706717592       10.0466318884
  H         3.2814918492        2.7652201261        9.4433814687
  H         4.5977748061        3.3711188982       10.1609284358
  C         5.6166261539        1.2048207561        8.7481184618
  H         4.1592045391        0.3957403224       10.0670793533
  H         5.5880550771        1.2238784188       10.8073961773
  C         6.8297281407        2.0453555746        8.6995872264
  H         4.9805895822        1.5150917412        7.9568350235
  H         5.7136109357        0.1337806059        8.5567879039
  C         8.1915903507        1.5119539560        9.0689739970
  H         6.8584605080        2.5572368424        7.7444120658
  H         6.4926025064        2.7771627976        9.4238949350
  C         9.2361169643        2.5983978701        9.3812150130
  H         8.5729850976        0.8547371927        8.2554756479
  H         8.1176030887        0.8880980513        9.9711656342
  C         8.7383817388        3.9243568579        9.9864113825
  C         9.5498527333        3.2908067120        8.1073705352
  C        10.5226403738        2.1340991216       10.0943794242
  C         8.9394664429        5.0637285919        9.2042167898
  C         8.2737788388        4.3375672412       11.2560372213
  C         9.4221141989        4.6260704551        7.9544637776
  C        10.0604349602        2.6713177615        6.9750344864
  H        10.3099510360        1.5849015432       10.9898080517
  H        11.1004265854        1.4192300215        9.5222389087
  C        11.5682742746        3.1869231450       10.3929714741
  S         8.6525281543        6.5616181704        9.9854539043
  C         8.0620036890        5.6710512105       11.3266582358
  H         8.2142397392        3.5648542974       11.9317424570
  C         9.7917345991        5.2597873194        6.8087724350
  H        10.1647852079        1.5576363523        6.9899019142
  C        10.4022798000        3.3183974101        5.8493381827
  H        11.3359085479        4.1955312132       10.8355548759
  H        12.1400296888        3.3848493810        9.4600012175
  C        12.5222775022        2.6609291289       11.4456463208
  C         7.3951953231        6.2813385180       12.4958248581
  C        10.3540046562        4.6602481249        5.6971242383
  H         9.9051114427        6.3735114696        6.9381532506
  C        10.8584064633        2.9128656776        4.6248581473
  H        13.4467552207        3.2092172568       11.3501820693
  H        12.8614165462        1.5784272719       11.2859456094
  C        12.1388222819        2.7074154572       12.9657854917
  C         7.4666826878        7.7005818165       12.7541812841
  C         6.8542295753        5.3548594630       13.5781252480
  C        10.7979795053        5.3341484178        4.4891750534
  C        11.0415373036        3.9622551887        3.7511977370
  S        11.2670789569        1.4186948747        3.8873787921
  H        12.9798508874        3.1974755919       13.3846192353
  H        11.2766693583        3.2839841771       13.1361401882
  C        12.2158310122        1.3516208128       13.6986409641
  N         7.6552288489        8.7274319780       11.8315178647
  C         7.2249361195        8.1262400848       14.0310720737
  C         6.5792502101        5.8836328221       14.8416142576
  H         6.6217797540        4.3506791660       13.3367466503
  C        12.1293861672        6.0442993192        4.5595194438
  C         9.7273934336        6.1679135967        3.7228026291
  C        11.5785402374        3.5086922906        2.4880750873
  C        11.6061267338        2.1590427002        2.4181574908
  H        13.3161536009        0.9949791466       13.6127776185
  H        11.4219294244        0.7153219212       13.2975297619
  C        11.9307329474        1.4369864064       15.2423564995
  S         7.7906185647       10.1153678301       12.6626474612
  N         7.4547413200        9.4906757484       14.0959951262
  C         6.7812008594        7.3614799344       15.1838187624
  H         5.9657031776        5.2319712610       15.4353559668
  H        12.0074338547        7.0877831974        4.9456854385
  H        12.4212008212        6.2012541914        3.4877709047
  C        13.3260718808        5.4012669832        5.1444709937
  H         9.3498291766        6.8547435620        4.5370315290
  H        10.1573920252        6.7357296100        2.9032577497
  C         8.5890765614        5.3516835511        3.0653822095
  H        11.8415064635        4.2757760713        1.7864051802
  C        11.9933409974        1.4178981772        1.1332533964
  H        11.3492011191        2.4183901017       15.3746766268
  H        11.2098806878        0.6669514070       15.5295385079
  C        13.1682700557        1.5781877710       15.9826636591
  C         6.5789608143        7.9162879979       16.4861318369
  H        13.1992810633        5.1344010595        6.1375643303
  H        13.5702656758        4.4566558318        4.6359472407
  C        14.4564839396        6.3992457866        5.0961372853
  H         8.1983007618        4.6567759612        3.7801318600
  H         8.9220403485        4.7423407175        2.2243741762
  C         7.3925113684        6.2133945168        2.6637916899
  C        12.0484097262        0.0044690833        0.9695527157
  C        12.1582917337        2.1589600964       -0.1220099367
  H        13.7959684921        2.3276948869       15.5319921705
  H        13.6886971184        0.6322619573       15.9687682680
  C        12.8623675526        2.0219321876       17.4525126811
  H         6.9334849166        8.8795457385       16.5336901432
  C         6.1960982550        7.3988452757       17.6378460498
  H        14.4197230890        6.9456246480        5.9661877372
  H        14.2790612910        7.2055110823        4.3406558754
  C        15.8481768741        5.7135532727        5.1953638302
  H         7.2728308719        6.8780394426        3.5134772204
  H         7.6869075873        6.9564447717        1.8978440563
  C         6.0801166727        5.6262040705        2.2917950322
  N        11.6470657549       -0.8839028710        1.9720559940
  C        12.3213043940       -0.6344026942       -0.2142677210
  C        12.4640616970        1.5537302781       -1.3160075809
  H        12.2098551172        3.2219468285       -0.1130767208
  H        12.4557784455        3.0607912580       17.3693257651
  H        13.8616259468        2.0204485673       17.9909180782
  H        12.0924125768        1.3618904909       17.9378037596
  S         5.8832233489        5.8294456595       18.0790717388
  C         6.1655885012        8.3492534164       18.7680536194
  H        15.8933535528        5.0015052462        4.3601434764
  H        16.6353471604        6.4590858464        5.0633496628
  C        16.0602304888        5.0250944791        6.5863893705
  H         5.5724818662        5.2973150290        3.2560301578
  H         6.3403951144        4.7998022738        1.5930961590
  C         5.1551198369        6.7221449050        1.6476415486
  S        11.7834228830       -2.3887383345        1.4574398354
  N        12.0927190321       -1.9997870816       -0.0659436424
  C        12.5385038364        0.0281046305       -1.4550456169
  H        12.5642216453        2.1887758971       -2.1744461786
  C         5.6641225549        6.3584958705       19.7212283055
  N         5.7110825358        7.7097378405       19.8977107983
  O         6.3254097260        9.6130391243       18.6503480498
  H        15.6329880051        5.6899378509        7.3698543108
  H        15.4701196233        4.0679234165        6.5164202032
  C        17.5094497630        4.6947005413        6.8457722989
  H         5.5803184427        7.0928984492        0.7801011567
  H         4.1657758070        6.3793006548        1.4595079746
  C         4.7582648888        7.8338995291        2.5535026319
  C        12.8244995050       -0.6237226170       -2.6712393624
  S         5.2037280091        5.4147564698       21.1556963217
  C         5.6017998548        8.4533138743       21.1546082753
  H        17.5686224960        4.2524050479        7.8399212535
  H        17.8570188928        4.0113130943        6.0942323195
  C        18.4450806535        5.8964683280        6.9106698012
  H         5.5538069200        8.1627802740        3.1340630034
  H         4.0525988393        7.2924583917        3.1730955180
  C         4.0654642331        9.1240952251        2.0734426011
  H        12.5842226205       -1.6289805051       -2.6824824188
  C        13.0703721136       -0.2052476643       -3.9422296426
  H         4.8632259905        7.8430982552       21.7322364616
  H         5.1964241139        9.4260063909       20.7763422465
  C         6.9497495812        8.5397248129       21.8700999320
  H        18.8748779085        5.9190134328        7.9632287623
  H        17.8322669231        6.7473457029        6.8697671593
  C        19.5506774757        5.9051283884        5.8474990986
  H         3.3037164380        8.8448528557        1.3508835064
  H         3.6104953059        9.7133293592        2.8298093456
  C         5.0603875513        9.9553291374        1.2777881371
  S        13.4304905002        1.3653680808       -4.3590990859
  C        13.2329973006       -1.2516066267       -4.9888826642
  H         7.4125630847        7.5149030344       21.8385704759
  H         6.7705552832        8.9241144815       22.8428623257
  H         7.6487037945        9.2037086440       21.3554199019
  H        19.6787884814        6.9529478539        5.4899940849
  H        20.5088114674        5.5049759920        6.2265794021
  H        19.3449458187        5.2481581234        5.0116928614
  H         5.5328132333        9.4372310226        0.4266194637
  H         4.5391254199       10.8289131130        0.8816576223
  H         5.8309350790       10.2735596646        1.9763967616
  C        13.7735268380        0.7744638335       -5.9604889888
  N        13.7918211168       -0.5834968001       -6.0356130067
  O        13.1477940758       -2.4559318987       -4.7940539621
  S        14.6386921439        1.6396245784       -7.2529052475
  C        14.0402304519       -1.3511813714       -7.2569624427
  H        14.3501606436       -2.3542837300       -7.0245784059
  H        14.8698254980       -0.9925146713       -7.7429403935
  C        12.8265477898       -1.4081519401       -8.1553806828
  H        12.6370860843       -0.4214484197       -8.5811133931
  H        12.0259758566       -1.8006513166       -7.6142235968
  H        12.9203088338       -2.0108811279       -8.9938424767
