352
 i =   100500, time =    50250.000, E =        98.9112644307
  H        10.9464968236        6.9309979592       32.9501962164
  C        11.7177109694        6.2136522760       32.7906799229
  H        12.5617674863        6.8495683540       32.5631628075
  C        11.4027763363        5.3020272250       31.6010897220
  C        11.8061609687        5.3910388696       34.0835770222
  C        11.2671608347        5.9922345261       30.2292618165
  H        12.1634220748        4.5667774879       31.5055965838
  H        10.5073343131        4.6759960908       31.6772142355
  H        10.7757281887        5.1394960378       34.2421831859
  H        12.4002784329        4.6174204007       33.7832884313
  H        12.2436567802        5.8823411461       34.9417156009
  C        10.4505827526        5.1675896306       29.2452352464
  H        12.1716665171        6.3741409582       29.7996334075
  H        10.8129156298        7.0059483968       30.4301821523
  C        10.7896482088        5.6038102447       27.7400348891
  H        10.5893390102        4.0823997944       29.2961353112
  H         9.3904526356        5.5044688587       29.3509487576
  C         9.7990877489        4.9490779263       26.6338397167
  H        11.7593274214        5.2160975025       27.5491082082
  H        10.7482353342        6.6812613532       27.6223726728
  C         8.6059374908        5.7770010594       26.2797015962
  H        10.3678808954        4.8044393476       25.6703667975
  H         9.5366119745        3.8839214225       26.9123858498
  C         7.4580474770        5.1164789896       25.5413381916
  H         8.1573012870        6.1470420766       27.2313436673
  H         8.8871679496        6.6818607010       25.6974318202
  C         7.1417733101        3.7466937257       26.2203769361
  C         7.8951197135        4.3812910230       24.3169256496
  C         6.3168077967        6.1458261034       25.2797405287
  C         7.3948274740        2.6156291343       25.4465676224
  C         6.4693824003        3.4015009940       27.4665723875
  C         7.8921350839        3.0555755994       24.2313204768
  C         8.2707560363        4.9813122802       23.1246052463
  H         6.6035269667        6.9570795733       24.5647780332
  H         6.0168532395        6.5364853686       26.2668071471
  C         5.1454031949        5.3730107924       24.7278412828
  S         7.0824501742        1.1212864581       26.1917282513
  C         6.4393418646        1.9948587678       27.5674288338
  H         6.2721017215        4.2559666918       28.1210025508
  C         8.2712151504        2.4274332177       23.0642165473
  H         8.3032146569        6.0405440500       23.2206644486
  C         8.6318803288        4.3686411052       21.9525798835
  H         5.3044051824        5.1848353344       23.7039683907
  H         4.9434097599        4.4857636801       25.3103072572
  C         3.8294930889        6.2025234256       24.7823116672
  C         5.9976723988        1.2981322463       28.8104671384
  C         8.6661387469        3.0296025627       21.8902943213
  H         8.3027886241        1.3184283673       23.1955575893
  C         9.0867274099        4.7566437588       20.7512226391
  H         3.1158374111        5.7084717248       24.0662665071
  H         3.9923969792        7.2068102792       24.2754436847
  C         3.1532582664        6.4799637369       26.1720512702
  C         5.9850920962       -0.0921514525       29.1648205378
  C         5.5566842354        2.1418690460       29.9659287226
  C         9.1271694582        2.3299007977       20.6614178557
  C         9.3611650339        3.6415730176       19.9553871749
  S         9.3141459559        6.3341868860       19.9459850066
  H         2.4949473783        7.3586999121       26.0919577179
  H         3.9380609813        6.7360627434       26.8913205601
  C         2.4039429848        5.3000043507       26.6295466579
  N         6.3344712600       -1.1586989707       28.2835372721
  C         5.7588066788       -0.6601866323       30.4256511647
  C         5.3106499055        1.5846179117       31.2709109255
  H         5.6651376607        3.1866190834       29.9548812523
  C         8.0595110282        1.5124732587       19.9386628926
  C        10.3787944221        1.4367838076       20.9560017207
  C         9.7158230945        4.0151161929       18.6459722006
  C         9.7634270962        5.3949030280       18.5408580819
  H         1.6340548664        5.0407654759       25.9115362564
  H         3.1012101346        4.4866410099       26.5894379927
  C         1.6123032852        5.5224832857       27.9929121152
  S         6.1880460861       -2.5957818174       29.0396745720
  N         5.9017518418       -1.9950325249       30.5210322622
  C         5.4282935048        0.1177315344       31.5559354697
  H         5.2857853698        2.3244117038       32.0567732437
  H         7.8689418267        0.6688126556       20.6226913490
  H         8.5353296170        1.1280686715       19.0744700122
  C         6.7684508562        2.2920959955       19.6057628586
  H        10.7064777172        0.7646524408       20.0376084452
  H        10.2316339909        0.6919108864       21.7164664266
  C        11.5531412192        2.3328438708       21.4342272782
  H         9.8525144769        3.3166014065       17.8864628659
  C        10.0984057227        6.1949721643       17.2985884662
  H         0.9759657886        4.6369637476       28.0300992585
  H         1.0429308765        6.4595650287       27.8807994412
  C         2.6775852245        5.5281971208       29.1309019798
  C         5.2272267146       -0.5010720478       32.8067547705
  H         7.0581835904        3.0003827552       18.7810405966
  H         6.4648618919        2.8708139548       20.5090359129
  C         5.5957801334        1.3676605045       19.0346780500
  H        11.2874523433        2.7585449672       22.3707776103
  H        11.6995293445        3.1195637481       20.6867902823
  C        12.9422922276        1.5788446521       21.4557781625
  C        10.2137200305        7.5710463596       17.0755833956
  C        10.6374722260        5.4730215793       16.1161475832
  H         3.2518109526        4.6272376149       29.0667571895
  H         3.3822322557        6.3275213597       29.0361312191
  C         1.9813803552        5.4486752271       30.4939045882
  H         5.2074140773       -1.5505264735       32.8038346866
  C         4.9405708027       -0.0277964335       34.0813091009
  H         5.0831044923        0.9094830975       19.8483231481
  H         6.0784775581        0.5901908212       18.4370304324
  C         4.4967931634        2.0949917795       18.2273981293
  H        12.9186471710        0.8836551327       22.2547801714
  H        13.0194539799        1.0083314943       20.5585950510
  C        14.1289783958        2.5981200762       21.6748126904
  N         9.9722579503        8.5672263830       18.0580175512
  C        10.4798148611        8.1484788555       15.8004400658
  C        10.9132952763        6.0259323852       14.8648946191
  H        10.6660710483        4.4298196826       16.1174857866
  H         0.9501259075        5.8633553540       30.2725931999
  H         1.6869498681        4.4350416567       30.8121513930
  H         2.5016732205        5.9309644524       31.3282527166
  S         4.6013877915        1.5501277055       34.5559341682
  C         4.8837898312       -1.0461638895       35.1274576719
  H         3.8449592003        2.5552224918       18.9621022932
  H         4.8503385657        2.9006179883       17.6395457251
  C         3.7917785180        0.9610435937       17.3000330192
  H        13.8815066005        3.3416600120       22.4461499569
  H        14.3882250910        3.1310721033       20.8123852381
  C        15.3662533356        1.8783529961       22.3297327406
  S        10.0440998531       10.0059685090       17.3474171535
  N        10.3619891947        9.5490907058       15.8367882902
  C        10.8000345107        7.4774086805       14.6234058941
  H        11.2264322513        5.3598181843       14.0307420158
  C         4.4264780081        0.9141821994       36.2107804690
  N         4.4460228576       -0.4493066490       36.2477118830
  O         5.1787556207       -2.2263719105       34.9492695887
  H         4.4602312547        0.2778333780       16.7724725831
  H         3.3534012189        1.3831921557       16.4178981296
  C         2.8873850384        0.0592297017       18.1599383785
  H        15.1871195716        1.7005160125       23.4012229883
  H        15.5141341600        0.8869395166       21.9985261149
  C        16.7008590708        2.6693694191       22.1503928296
  C        11.0263269298        8.2741168552       13.4243898986
  S         4.2329796940        1.8851025903       37.6912491394
  C         4.2821496341       -1.2403503321       37.4061345497
  H         3.4954516494       -0.3771423216       18.9588225937
  H         2.2794796992        0.6766739908       18.7715873444
  C         2.2015095239       -1.0922260542       17.3420732949
  H        16.6022285605        3.5654137797       22.7201415395
  H        16.7581291325        3.0073262026       21.1260219516
  C        17.8457227460        1.9349713659       22.5880205124
  H        10.8412467208        9.3391463707       13.5505860337
  C        11.6102789829        7.9380962715       12.2217020972
  H         3.5704367470       -0.7613852418       38.0624322855
  H         4.0813620467       -2.2503794639       37.1888180781
  C         5.6118410837       -1.4653636131       38.1615981972
  H         2.0237970915       -0.7412522224       16.3374846926
  H         1.2263492173       -1.3147381107       17.8457745510
  C         3.1149296276       -2.3897549666       17.2274302408
  H        18.1077543044        1.0711548325       21.9295678419
  H        18.6381606700        2.6941759530       22.6468494594
  C        17.7041440655        1.4670004986       24.1370202995
  S        12.2014084558        6.4182154159       11.7430161795
  C        11.7806435747        9.0766038230       11.2274773449
  H         5.4668275121       -1.9303401693       39.1611712944
  H         6.2530932572       -2.0735439099       37.6027605393
  H         6.1432764167       -0.5284127256       38.2819051569
  H         2.9325225320       -3.0638848163       18.0489148250
  H         4.1863111628       -2.3081898103       17.1486009205
  H         2.8984840278       -2.9439266597       16.3268212797
  H        18.6523960255        1.0402038952       24.5274829710
  H        16.9820247543        0.6893086897       24.2273747457
  H        17.2233311016        2.3280263357       24.6819176377
  C        12.6752307585        7.2150890997       10.2565189015
  N        12.3731180341        8.5418846073       10.1111612918
  O        11.3956040601       10.1895687764       11.5006312220
  S        13.1684115991        6.3750915897        8.7746746580
  C        12.4370826792        9.1598260894        8.7885959065
  H        12.4719897304       10.2482469965        8.9062602556
  H        13.3217982970        8.9189512067        8.2165966048
  C        11.1542885539        8.6444676174        8.0138870525
  H        10.6543640303        7.8396096167        8.6089588976
  H        10.4483392621        9.4573618241        7.9719325400
  H        11.3450634592        8.2202899950        7.0168745602
  H         2.4635469311        4.0044321319       12.1572958903
  C         2.6503512535        2.9189097160       12.2706113332
  H         2.0867962378        2.3134985691       11.5292376835
  C         4.0375908702        2.7438565379       11.7448303879
  C         2.4806072085        2.4493447714       13.7548996250
  C         4.0612243390        2.7176151836       10.1976925620
  H         4.3264887809        1.7718728066       12.1480367522
  H         4.6606946370        3.5610083076       12.0480418442
  H         2.6279352618        1.3515676551       13.9066110050
  H         1.4913862974        2.7486248197       14.0605716945
  H         3.2465964751        2.9827574578       14.3047869580
  C         4.8551964082        1.4595231339        9.6840925233
  H         3.0564509133        2.6836976532        9.7970658746
  H         4.4666343940        3.6628181109        9.7521859762
  C         5.5425059696        1.6786372040        8.3261484650
  H         4.1404741445        0.5754055158        9.5014561284
  H         5.5445937381        1.0211102680       10.4278153616
  C         6.7686020933        2.4826561177        8.3625266800
  H         4.8223107632        2.2835295585        7.7910655237
  H         5.5586898248        0.7440977884        7.7594144715
  C         7.9492132018        1.8508387882        9.1703730829
  H         7.1370833353        2.7094516121        7.3328606414
  H         6.5230564472        3.4125300757        8.8465719710
  C         9.2151441512        2.7837232692        9.2958568478
  H         8.1946113979        0.9438389759        8.6099241702
  H         7.5567103283        1.5777660729       10.1719559710
  C         8.7941353450        4.0986576962        9.9125847410
  C         9.6725498183        3.4159506754        8.0201347684
  C        10.3926456000        2.2711318755       10.1504805714
  C         9.0263220384        5.1704995437        9.0758909532
  C         8.2367312825        4.5380027198       11.1225768822
  C         9.5992553535        4.7648498516        7.9222957601
  C        10.1427962368        2.8065396539        6.8474210950
  H         9.9940545027        1.6769563830       10.9503773063
  H        11.0138254393        1.6135598485        9.5951794661
  C        11.2625029721        3.3250175606       10.8453788955
  S         8.5060888642        6.6951869827        9.6948737326
  C         8.0418050974        5.8480833706       11.1586765337
  H         8.1642244729        3.8632681829       12.0394307420
  C        10.0821190282        5.4101398064        6.7630979206
  H        10.1858133542        1.8087894124        6.8420314438
  C        10.6913518648        3.4112306309        5.7638119542
  H        10.8684184940        3.7451684468       11.6626086706
  H        11.5831012412        4.0834812694       10.1507613891
  C        12.5768478050        2.8638161662       11.3305246866
  C         7.6821563915        6.5578875256       12.4216256330
  C        10.6096431778        4.7623240764        5.6230445600
  H        10.0659633093        6.4701339805        6.7335457453
  C        11.2268375951        2.9693642463        4.5332023470
  H        13.2027884644        3.7709778272       11.4993077956
  H        13.1095286040        2.2508958645       10.5293846963
  C        12.5235927699        1.9128734079       12.4741875365
  C         7.8281691051        7.9296033416       12.7204385319
  C         7.0476210548        5.7082481205       13.5432734001
  C        11.1763906735        5.4364090364        4.3509497352
  C        11.4028572029        4.0479725341        3.7051264508
  S        11.3840513842        1.4750161666        3.7436099806
  H        11.4717997521        1.7324118769       12.7713746354
  H        13.0113728372        1.0576184701       12.1917448554
  C        12.9891820860        2.5445720712       13.8506260044
  N         8.2664445226        8.8909895616       11.8214343233
  C         7.5246566414        8.4257251178       13.9614701996
  C         6.9167206326        6.2083357318       14.8446033936
  H         6.6659071989        4.6748609192       13.3779950617
  C        12.4590292382        6.2017380201        4.5606474239
  C        10.1775831314        6.1927199714        3.4694855901
  C        11.7420798931        3.6305880731        2.4152968391
  C        11.7857015225        2.2636747819        2.2650937932
  H        12.3836078022        3.4352891977       14.0748360656
  H        13.9863010765        2.7634401209       13.7956477469
  C        12.5872944372        1.7868054682       15.0891003229
  S         8.2927139136       10.3728836125       12.5651150251
  N         7.7318672382        9.8086985899       14.0069318983
  C         7.1559417257        7.6863765006       15.1186069062
  H         6.3924929902        5.5788194428       15.5551600022
  H        12.2560121647        6.8002128812        5.3908144850
  H        12.7202329283        6.8437859142        3.6871547221
  C        13.6585323708        5.2701958425        4.9919707178
  H         9.9493925911        7.0928528495        4.1283463251
  H        10.5533536297        6.5489132920        2.5246534009
  C         8.9137782588        5.4541255590        3.2636264881
  H        11.8437415819        4.3585704455        1.5972576667
  C        11.9980415393        1.5146654648        1.0032657316
  H        11.5273401258        1.4810558091       15.1130946411
  H        12.9763268558        0.8137944600       15.0425381080
  C        13.1828325499        2.3861579010       16.3834210042
  C         6.8683380035        8.4119156951       16.3508621491
  H        13.4203752647        4.7224094009        5.8263884776
  H        13.9177243717        4.6636261944        4.1684392549
  C        14.8135037432        6.1577086776        5.3308551908
  H         8.5290679961        5.1283043539        4.2239666115
  H         8.9952457963        4.6799304500        2.5643227806
  C         7.9122825609        6.4445480303        2.5608887293
  C        11.8905329284        0.1092034141        0.8297596624
  C        12.3823407753        2.3433322172       -0.1964133139
  H        12.9587041584        3.4889357034       16.6094775280
  H        14.2491246873        2.1867811994       16.3617305370
  C        12.6846934025        1.6625435468       17.6129565265
  H         6.8855013916        9.4788857519       16.3363551514
  C         6.4861644391        7.9933362414       17.6372117334
  H        14.6282374974        6.9231677379        6.0419556838
  H        15.0918584462        6.7333455923        4.5152937885
  C        15.9230785458        5.2668011108        5.8079492448
  H         7.6642473728        7.1428098644        3.3464763973
  H         8.3691668332        7.0574742411        1.7310519068
  C         6.6613165438        5.7106554300        2.0555146597
  N        11.5758799144       -0.7968796160        1.7884724830
  C        12.2184428578       -0.5182339911       -0.3209526074
  C        12.7698295611        1.6435065877       -1.3347636185
  H        12.4526965895        3.4311622798       -0.1313662112
  H        12.9923533199        2.0760578804       18.5593288892
  H        12.8490815979        0.6186519072       17.6274343131
  H        11.6382953193        1.7500265840       17.6302003163
  S         6.1470794717        6.3951367311       18.1583389007
  C         6.5393381575        8.9743641000       18.7384250714
  H        15.5272183586        4.7398972933        6.7055476341
  H        16.1309651684        4.5209333122        5.0037384308
  C        17.1025555488        6.0968917086        6.2406541334
  H         6.6039089499        4.8512089734        2.6662731443
  H         6.9718700427        5.2469563652        1.0604731591
  C         5.4617291494        6.6001573896        1.9416376413
  S        11.5749414801       -2.2923855523        1.2159586090
  N        12.1321042062       -1.9298211207       -0.2598161668
  C        12.5652035724        0.1675576709       -1.5421313629
  H        13.0368070803        2.2806610167       -2.1803510338
  C         6.0838920238        6.9944764882       19.8160025857
  N         6.1610574562        8.3710037853       19.9317168779
  O         6.9239581957       10.0984268722       18.5837791853
  H        17.4899030868        6.5757103030        5.3770237602
  H        16.8152295483        6.9247737224        6.8610377892
  C        18.1384587277        5.2479135990        6.9837472428
  H         4.6688815336        6.1178868868        1.4114042129
  H         5.1054239098        6.6212993156        3.0131670305
  C         5.6541120010        7.9567974341        1.2217470952
  C        12.7840659595       -0.5631264515       -2.7450728737
  S         5.5901708481        6.0901789279       21.2203013270
  C         6.1617453630        9.0208236690       21.2067810592
  H        17.8026207588        4.9027406932        7.9959838500
  H        18.2046925669        4.3241670637        6.4144373841
  C        19.4664578652        6.0310995818        7.1009505301
  H         6.1196423842        7.8071669872        0.2591974220
  H         6.2752152200        8.5341717265        1.7969596624
  C         4.3641482194        8.8300495827        1.0576421817
  H        12.3909582726       -1.5885341428       -2.7428908345
  C        13.4660490552       -0.2619753386       -3.9056527089
  H         5.3772125665        8.6557312735       21.9029486924
  H         5.7891378622        9.9649145943       21.1100346345
  C         7.6290334111        8.9989797468       21.6237430685
  H        20.0553253195        5.6080941430        7.9340633340
  H        19.3312074246        7.0685968012        7.2472745549
  C        20.4896580974        5.6576091233        6.0081731494
  H         4.6212678222        9.7727823584        0.5419881975
  H         3.6252762826        8.2369179655        0.5060670175
  C         3.7370973917        9.1508344449        2.3491564375
  S        14.2240225608        1.3143439901       -4.1536517275
  C        13.6307638767       -1.2509670845       -4.9800979575
  H         8.2880464240        8.9015846987       20.8071066156
  H         7.7866742886        8.1450091640       22.2940889334
  H         7.9222665772        9.8716239069       22.1647739345
  H        20.0643420647        5.2983900742        5.0384264141
  H        21.1379096117        6.5137120268        5.7686456053
  H        21.1441081431        4.9136731471        6.3302531940
  H         3.0459899130       10.0197002648        2.1425433410
  H         3.2580486937        8.2972648257        2.7247186217
  H         4.3763302553        9.6400997501        3.0982136795
  C        14.6810481932        0.6500824502       -5.6958159872
  N        14.3144308768       -0.6172324021       -5.9751886786
  O        13.0790849550       -2.3912559568       -4.9731525309
  S        15.4156552962        1.5773184050       -6.9839144864
  C        14.2581269250       -1.3655960871       -7.2814407051
  H        14.5109698880       -2.3941735218       -7.1711196653
  H        15.1277806165       -1.0676359035       -7.9240884271
  C        12.8680746718       -1.1708200640       -8.0003379291
  H        12.0418162559       -1.7248362527       -7.5804377502
  H        12.9247027543       -1.6282152195       -8.9877965518
  H        12.6950768628       -0.1634868446       -8.1149203047
