352
 i =    46500, time =    23250.000, E =        98.2157922847
  H        10.3565222078        4.4531665807       31.1416428055
  C        10.1872970605        5.4083793346       31.7186302211
  H         9.1275474378        5.7319116917       31.7354025422
  C        10.9151731901        6.5295721416       31.0553552888
  C        10.6701316829        5.3785398836       33.1265356327
  C        11.4383757341        6.1415156156       29.7080896935
  H        10.3424327819        7.4993151566       31.1322399019
  H        11.7758034880        6.6869663246       31.7136614043
  H        10.1104083478        4.6307700890       33.7139142803
  H        11.7158450339        5.0613795594       33.1988550631
  H        10.5561642700        6.3061442610       33.6931750281
  C        10.4479091830        5.5864894440       28.7421771635
  H        12.1141800265        5.2581591425       29.8035521581
  H        12.0654790999        6.9088979611       29.1917922630
  C        10.6519149476        6.1304764188       27.4029338412
  H        10.5898763956        4.5093287197       28.7290799329
  H         9.4565216659        5.6310880585       29.0910207212
  C         9.7366265103        5.3332860094       26.4751952175
  H        11.7188667695        6.0254747338       27.1176071416
  H        10.4968414623        7.1905725990       27.4041718145
  C         8.4497241809        6.0678178559       26.1583816490
  H        10.3023294134        5.1685942843       25.5638756946
  H         9.5931194947        4.3631222853       26.8788179269
  C         7.3795364944        5.2659945795       25.4327988913
  H         8.0411229890        6.4532130020       27.0267587321
  H         8.5795799073        6.9084363011       25.5146486482
  C         6.9974220695        3.8997029746       25.9947274543
  C         7.9004161054        4.5337739208       24.2870959732
  C         6.1601605997        6.3010975094       25.1567417411
  C         7.2359484731        2.7908705795       25.2501409210
  C         6.4257990280        3.5711083136       27.2587678105
  C         7.7723594073        3.1921664328       24.0923536758
  C         8.3447898286        5.1343714222       23.1111931306
  H         6.4233269083        7.0337456009       24.4655599993
  H         5.9144471971        6.9404575530       25.9587239114
  C         4.8517262825        5.5713648051       24.7347080086
  S         6.5880797340        1.3474377831       25.9808930055
  C         6.2705957423        2.2361650969       27.4266032495
  H         6.1930695846        4.3902440806       27.9881734864
  C         8.1044245988        2.5356118274       22.9456592150
  H         8.4388973434        6.2347023835       23.1359637976
  C         8.6745007188        4.4466158728       21.9532405992
  H         5.0170977273        5.2313485587       23.7342133992
  H         4.6584565614        4.6224454664       25.3257643057
  C         3.6994195559        6.4883307564       24.6745436302
  C         5.8182163711        1.5988007413       28.7853185727
  C         8.5330306779        3.1455130048       21.7475529108
  H         7.9957910892        1.4689487493       22.9127761327
  C         9.1749537561        4.8819988171       20.7287173436
  H         2.9408853055        6.0462526875       24.0738107985
  H         3.8182399910        7.4033647708       24.1381682571
  C         2.9297537795        6.7201295099       26.0638683724
  C         5.8165614042        0.1993381005       29.0733415462
  C         5.3168454601        2.4312117095       29.8417154203
  C         8.9266849993        2.4504942524       20.5000255862
  C         9.2779321695        3.8041604423       19.8548436046
  S         9.4379045149        6.4359406407       20.0286514891
  H         2.3598063687        7.5929590104       25.9745232237
  H         3.6979211177        6.8797186341       26.8321922857
  C         1.9301934727        5.6402571734       26.3976350429
  N         6.1378837028       -0.7355968117       28.1162864639
  C         5.4850873101       -0.3409870943       30.2652370642
  C         5.0239717077        1.8589532088       31.1178321193
  H         5.2736830707        3.4792443947       29.8025951001
  C         7.8151423713        1.6444154771       19.7699588752
  C        10.1529557799        1.6084607488       20.9136055264
  C         9.7199787834        4.2390421465       18.5955252063
  C         9.6836376144        5.6224446510       18.5154617003
  H         1.1586039390        5.5619549003       25.6637170562
  H         2.4212529001        4.6310768116       26.3044701626
  C         1.3373142057        5.7468745781       27.7608284315
  S         6.0782141998       -2.2252365053       28.8162321220
  N         5.4640725615       -1.7624298610       30.2481522643
  C         5.1446865928        0.4201639807       31.3743222667
  H         4.9190659026        2.5237597474       31.9798747166
  H         7.5909935190        0.8547684034       20.4314186111
  H         8.3384635245        1.1557406319       18.9139048358
  C         6.5565721088        2.3701631627       19.3536018242
  H        10.3319460664        0.9219710657       20.1161323008
  H         9.9254945616        1.0738937308       21.8337673332
  C        11.3557293282        2.4306222509       21.3528499151
  H         9.9618282739        3.6379402252       17.7421969453
  C        10.0273354596        6.4200812718       17.3159569540
  H         0.5798600149        4.9847646090       27.8258868031
  H         0.9508236977        6.7338322190       27.9731448568
  C         2.2990594966        5.4338063712       28.9384249367
  C         4.8712755051       -0.1990728295       32.6294696812
  H         6.7698817660        3.4935991171       19.3943458640
  H         5.7911305624        2.3568450192       20.1869782260
  C         5.9682263410        1.9104426796       17.9979542193
  H        11.2265327053        3.0591449757       22.1761495413
  H        11.5722376404        3.1006237247       20.6112438269
  C        12.7002588211        1.6473271057       21.5477614657
  C        10.0640688229        7.8099910098       17.2572688206
  C        10.3042458282        5.7195968548       16.0063778975
  H         2.8945298030        4.4474284842       28.8185217973
  H         3.0099160874        6.2749861178       28.9620554095
  C         1.4689261889        5.2512467727       30.2334689368
  H         4.9181434681       -1.2922177039       32.6697151140
  C         4.5653784059        0.2888938085       33.8825784181
  H         6.1806933164        0.8552128588       17.7083488734
  H         6.3921900925        2.4328171929       17.1511882926
  C         4.4986275991        2.1957355283       17.9787207668
  H        12.4250211892        0.9529052721       22.2980197986
  H        13.0628315433        1.1018489744       20.6931075116
  C        13.7187581011        2.5672773762       22.0735833948
  N         9.7570200989        8.7251329945       18.2688666873
  C        10.3531916829        8.4293023343       15.9990348725
  C        10.6132032706        6.3001199549       14.8201551057
  H        10.2323874801        4.6051083205       16.0790738060
  H         2.1586168062        4.7005080160       30.8553518570
  H         1.0762150032        6.0721269277       30.7714417319
  H         0.5895757434        4.6179621474       30.0847901488
  S         4.0282392423        1.8129041742       34.3583775268
  C         4.5221175103       -0.7019332983       35.0199898704
  H         4.3181090962        3.1365917122       18.5732415413
  H         4.2678329734        2.4857541113       16.9606177436
  C         3.7423145559        1.1548491078       18.6329585126
  H        13.4155385147        3.1712719077       22.9480886558
  H        13.8950128108        3.2889991149       21.2697170330
  C        15.0306686058        1.8992668113       22.2712548882
  S         9.8061892394       10.2102280370       17.6269142891
  N        10.1998142620        9.7925329695       16.0776726995
  C        10.6409036466        7.7804833379       14.7815673054
  H        10.7343267598        5.7110370166       13.9195003268
  C         3.9333517789        1.1843808504       36.0363917371
  N         4.1419959365       -0.1055305769       36.1482448329
  O         4.8720876471       -1.8691682863       35.0376110823
  H         2.9561331724        1.4749519294       19.2849564359
  H         4.4263152970        0.6419965376       19.3733532656
  C         3.3313276680        0.0918027573       17.6491495626
  H        15.0458482519        1.1792552097       23.0765194189
  H        15.3164378585        1.5416245476       21.2713708931
  C        15.9570290802        3.0531297417       22.7365119893
  C        10.8873723263        8.6058809341       13.6431810801
  S         3.4161550258        2.1840277434       37.4710920607
  C         4.2598903564       -0.7005706047       37.4998943890
  H         2.7117875630        0.5476892748       16.7374271481
  H         4.2977535611       -0.3590063649       17.3450893631
  C         2.4955551292       -1.0517925675       18.2513469078
  H        15.7191557265        3.3067406267       23.8064657730
  H        15.8375063052        3.9969831351       22.2139553179
  C        17.3846435073        2.7404429527       22.6667463998
  H        10.5849849708        9.6654945358       13.7213776075
  C        11.5554501355        8.3246001901       12.4633100787
  H         3.3901758327       -0.4130327464       38.2051783713
  H         3.9997269824       -1.7143940626       37.3009968029
  C         5.6659373581       -0.7404640387       38.1851818080
  H         1.7319963413       -0.6032635044       18.8248058631
  H         3.1283602852       -1.7478988320       18.7526086831
  C         2.0585038698       -1.8823848673       17.0804060374
  H        17.6085847931        2.1434518163       21.7237877388
  H        17.9743611164        3.6101578717       22.6891510196
  C        17.8047746689        1.9087128025       23.8394516597
  S        12.1392942661        6.7842949548       12.0178531452
  C        11.8691905597        9.4112052363       11.5218362331
  H         6.4770897321       -0.6341050319       37.4854810822
  H         5.6501805452        0.0764558834       38.9192942038
  H         5.8958477393       -1.6761714788       38.6396610039
  H         2.8989139644       -2.1037331258       16.4515620578
  H         1.3479255575       -1.4091613623       16.4595472518
  H         1.6095955344       -2.8665280630       17.3162549001
  H        17.4637842144        2.2905381310       24.7815588204
  H        18.9480251096        1.8300054820       23.9117288034
  H        17.2568210903        0.9437255025       23.7262730385
  C        12.4019647425        7.4349272646       10.4292979917
  N        12.2847612959        8.8241562398       10.3753532078
  O        11.3117389194       10.5298605776       11.5676457277
  S        13.3271706942        6.6792745926        9.1373959473
  C        12.4243383655        9.5929154301        9.1836216621
  H        12.2505777640       10.6286699922        9.4279513611
  H        13.5174842658        9.5298936298        8.8750826564
  C        11.5243507389        9.0749421443        8.0644175707
  H        11.1596840283        9.9262207392        7.4694266123
  H        12.1980010709        8.5259333152        7.3627581717
  H        10.7909469243        8.3541285895        8.4138705025
  H         4.6166575534        3.1172491906       12.4597317445
  C         3.6389382619        2.6641208396       12.4582912419
  H         2.9041681317        3.4008828664       12.4567513263
  C         3.5953747185        1.5832811764       11.2910669500
  C         3.4871155917        2.1022525632       13.8360591726
  C         4.3388533796        2.0363648689        9.9829449214
  H         2.5466324096        1.2999076340       11.0111323435
  H         3.9869804697        0.6059053134       11.7045714183
  H         2.8153666033        1.2468813288       13.9216952734
  H         3.2386381407        2.8498838644       14.6069506895
  H         4.4350090477        1.6520946687       14.1046735152
  C         5.5509992712        1.2416903390        9.5733974123
  H         3.6438007651        1.8276787247        9.1374090158
  H         4.5315793152        3.0532432185       10.0001965363
  C         6.2065703395        1.7083787623        8.2124840124
  H         5.4267992786        0.1457387502        9.4385780201
  H         6.4146371678        1.3109636213       10.2216336950
  C         7.3187116868        2.7124554558        8.3677567472
  H         5.4035568520        2.1320333998        7.6707266377
  H         6.4875345336        0.8941157245        7.5260808150
  C         8.6833107324        2.0684373608        8.6175499292
  H         7.3367180445        3.2763470190        7.4169989056
  H         6.9226811874        3.3996942358        9.1646088724
  C         9.7370693008        3.0584305661        9.0829717581
  H         9.0013116126        1.6005434751        7.7405968660
  H         8.5992882861        1.2525483600        9.3156860802
  C         9.2361246092        4.3038436835        9.7782585162
  C        10.1636089680        3.8540287833        7.9060106760
  C        10.9077371812        2.3274024782        9.8166206280
  C         9.3394043806        5.4495794225        8.9609158232
  C         8.7181330310        4.6356442240       11.0664461780
  C         9.8482538361        5.1330818775        7.7357381697
  C        10.5923915949        3.2219768174        6.7139899763
  H        10.4831631494        1.9204207705       10.6809776476
  H        11.2791213169        1.4875771886        9.2321050560
  C        12.1818689633        3.2584773947       10.1155135203
  S         8.7986969141        6.8634828440        9.7618102533
  C         8.4592481667        5.9498352533       11.2220890418
  H         8.7483396757        3.8071903855       11.7802031436
  C        10.1332600294        5.8317906590        6.5587493281
  H        10.8020594618        2.1354675575        6.7925964263
  C        10.7043683519        3.8440096605        5.5137230997
  H        11.8075266167        4.2569634208       10.5059884788
  H        12.7805653824        3.4267274772        9.2354327852
  C        13.1261438690        2.7932238921       11.2320682592
  C         8.0547521845        6.5826068602       12.4550408742
  C        10.6099974162        5.1712553540        5.4075856500
  H         9.7438908776        6.8215197524        6.6085470402
  C        10.9507893343        3.3300466463        4.2113099099
  H        13.9870729708        3.4127581858       11.2046403235
  H        13.4372304345        1.8158225418       10.9984164477
  C        12.5172128072        2.8746611563       12.6346391026
  C         7.8903601304        7.9859800398       12.6196020660
  C         7.5375140002        5.7565880192       13.5872506047
  C        10.9016055195        5.7802012447        4.0712769522
  C        11.1928024015        4.4295828048        3.4147348749
  S        11.3062821643        1.7727793405        3.5561355482
  H        11.9522747732        3.7704398368       12.7746510557
  H        11.7940874271        2.1196534332       12.6625302202
  C        13.4865974544        2.6444485914       13.7709629619
  N         8.1571524548        8.9602319641       11.6513385483
  C         7.4757813591        8.5948194910       13.7923440507
  C         7.0004062731        6.3589407528       14.7536980004
  H         7.4575034157        4.6620362052       13.4910812777
  C        12.1216979093        6.6256066052        4.1961034069
  C         9.7229747074        6.4965595801        3.3038759457
  C        11.4831565222        3.9608048654        2.1496848707
  C        11.5192696387        2.6146892584        2.0599082364
  H        14.2315083137        3.4724640322       13.7863613137
  H        13.8836393840        1.6555663507       13.5696954883
  C        12.8626834108        2.4836640357       15.1753687225
  S         8.1715361156       10.4014879199       12.3703292778
  N         7.7020747757        9.9946158847       13.8325733068
  C         7.0438834996        7.8637318359       14.9423439280
  H         6.6216058213        5.7323203055       15.4671543156
  H        11.8108465961        7.4657690168        4.7406717813
  H        12.4496786702        6.8933731419        3.1766120771
  C        13.3120855287        5.8685355436        4.8258585065
  H         9.4909235155        7.3842094667        3.8365129474
  H        10.1494696476        7.0043837048        2.4590606053
  C         8.5243399597        5.6594232167        2.8688699437
  H        11.5819708977        4.6600808206        1.3344394435
  C        11.7285202311        1.8882054748        0.7882827696
  H        12.2398700158        3.3945934630       15.3410890818
  H        12.2175705466        1.6222194920       15.1118518706
  C        13.9317062416        2.3146341873       16.3008907090
  C         6.7911189908        8.5710853912       16.1951197370
  H        13.1669377774        5.7177463331        5.8447692033
  H        13.3870877919        4.9170308179        4.2998851775
  C        14.5687004370        6.6450999725        4.6584508064
  H         8.2301131231        5.2198305316        3.8429814294
  H         8.8467251131        4.8546998058        2.2175939805
  C         7.3966744333        6.4245721255        2.1778026878
  C        11.7292244566        0.4501149002        0.6201947908
  C        11.8796546013        2.6449165105       -0.4553987276
  H        14.7783300357        2.9668439590       16.0738840966
  H        14.1815116162        1.2955066046       16.3908848500
  C        13.5003262237        2.8510967481       17.7017225784
  H         6.9530657730        9.6624990278       16.1111001350
  C         6.5562329550        8.0330989816       17.4356717409
  H        14.4496021179        7.5693763778        5.2032143638
  H        14.8484753905        6.9664024975        3.6587561009
  C        15.7491461167        5.8161092443        5.1654326911
  H         7.2936511038        7.4161082041        2.6347665775
  H         7.7929817190        6.6585237694        1.2076190448
  C         6.0562984027        5.6068120546        2.1406691555
  N        11.6270663067       -0.5645978740        1.6366871464
  C        12.0646113524       -0.1417552365       -0.5951351701
  C        12.1423724710        2.0526794496       -1.6873537538
  H        11.8733643057        3.7127359196       -0.4116094950
  H        12.5752589710        2.3253024041       17.9194621634
  H        13.3101697474        3.8465291225       17.6330006613
  H        14.4313545539        2.7114959366       18.3586195892
  S         6.1965701737        6.4341945367       17.8435435119
  C         6.5075576072        9.0230457416       18.6027770953
  H        15.4992168747        4.8258187972        5.5822711307
  H        16.4352158162        5.6470919537        4.3207794753
  C        16.5806521490        6.4865127918        6.3462690866
  H         5.8274748714        5.5119671190        3.1951640940
  H         6.2160042766        4.6276925444        1.7807931684
  C         4.7893194630        6.1775707693        1.3990118662
  S        11.6906818815       -1.9975538685        0.9268621012
  N        12.0687153202       -1.5467538087       -0.5763569062
  C        12.2006550766        0.5542836704       -1.8082383823
  H        12.3725151795        2.6582889240       -2.5572857603
  C         6.1418284666        7.0182644058       19.5237770938
  N         6.1919677612        8.3455705092       19.7840934562
  O         6.5878058625       10.2654081729       18.3444400006
  H        17.1622840765        7.3464033930        5.9596233519
  H        15.9246565907        6.8748493153        7.1306673425
  C        17.3598782821        5.4572276045        7.1434876480
  H         4.9796497384        6.1795429159        0.3000832348
  H         3.9230884625        5.5362548822        1.4907542869
  C         4.2637764127        7.5109999160        1.9383306668
  C        12.5314422701       -0.2415607958       -2.9316440805
  S         5.7587486050        6.1426395316       21.0274941129
  C         6.1488704853        9.0278813745       21.0865127037
  H        16.7755577931        5.0536794964        7.9493418666
  H        17.4140587733        4.5646439062        6.5901901697
  C        18.6284213966        6.0205600488        7.7191572216
  H         4.6618357259        7.5944220617        2.9255872122
  H         3.1761899999        7.5596259768        1.8999175674
  C         4.7436993698        8.6165620933        0.9334222356
  H        12.4536455683       -1.3057797285       -2.8355300628
  C        12.9522678980        0.0242595638       -4.1978801737
  H         5.2327391478        8.6905814051       21.5947701038
  H         5.9599155007       10.0740511712       20.8980647918
  C         7.5139457762        8.9100643295       21.8137831098
  H        19.0402871407        5.4966354031        8.5754478494
  H        18.5405959975        7.0764814410        7.9543821369
  C        19.6622953430        6.0579440297        6.5913257622
  H         5.8539482033        8.5887183932        0.7914424258
  H         4.3323561016        8.4741427762       -0.0512333641
  C         4.3685745715       10.0120500536        1.4866034472
  S        13.4121700729        1.5846775490       -4.7479569432
  C        13.1572915472       -1.0811753581       -5.1806649284
  H         8.4155866753        8.7024815737       21.2022474174
  H         7.4684699748        8.2202882870       22.6813861661
  H         7.5864723091        9.9843395408       22.1209221908
  H        19.6871693984        5.1503423173        6.0926474057
  H        19.5025839771        6.7641777884        5.7678940507
  H        20.7281868238        6.2455020878        6.9113991553
  H         4.6343985614       10.1180624003        2.5103130538
  H         4.8157763767       10.7106143009        0.8561725721
  H         3.3281087424       10.1666504047        1.6003046690
  C        13.8049310958        0.7979244764       -6.3027637878
  N        13.6928202885       -0.5762679332       -6.2776043949
  O        12.9809794171       -2.2777533617       -4.8499291529
  S        14.3979655774        1.6273684980       -7.7529116881
  C        14.0018928875       -1.3997675827       -7.4338887743
  H        14.2317537699       -2.4061500843       -7.1572177630
  H        14.8644305809       -1.0677260676       -8.0166466193
  C        12.8322518594       -1.4990660349       -8.3914724682
  H        12.6101597792       -2.5588713725       -8.6072445214
  H        13.1835842052       -1.1124654857       -9.4086488320
  H        11.8849580131       -1.0689884462       -8.1322451108
