352
 i =    72900, time =    36450.000, E =        98.0401722742
  H        12.3175406549        7.2981812213       32.1040672914
  C        11.7746787564        6.3879089597       32.1171728511
  H        12.4678137625        5.6419533006       31.7862298290
  C        10.4863552016        6.2929094371       31.2853181508
  C        11.4121789753        6.1018945717       33.5649833564
  C        10.5485879618        6.9953802124       29.9325046103
  H        10.3639312670        5.2570318070       31.1058515149
  H         9.5417056687        6.4622502410       31.9120814359
  H        10.7957602487        5.2263336883       33.6027685022
  H        12.2792777265        5.9246463999       34.1707311696
  H        10.8307429814        6.8172473739       34.0997833586
  C         9.7923369418        6.2773514215       28.8479186663
  H        11.6178228871        7.1184879671       29.6339120361
  H        10.3091537678        8.0685878623       30.0034540966
  C        10.6262590974        6.3480579159       27.5276497728
  H         9.6623884331        5.1829115447       29.1919223601
  H         8.7497042375        6.6903442041       28.7606569562
  C         9.8859959431        5.6584532562       26.4153785512
  H        11.5840483358        5.9247225678       27.6796142919
  H        10.7938100012        7.4544582119       27.3549764126
  C         8.6926898416        6.3879243138       25.8654682304
  H        10.5910725483        5.5150288039       25.5255394162
  H         9.7353208054        4.5967070648       26.7178564377
  C         7.5616230846        5.5293413581       25.2471606191
  H         8.2841747943        6.9018146774       26.7143561170
  H         8.9598197197        7.1745866193       25.1923046037
  C         7.3041901849        4.2491904599       26.0541390880
  C         7.8867336676        4.7227764455       23.9773474624
  C         6.2745967551        6.3656581835       24.9061868759
  C         7.5167512815        3.0491804819       25.3016405549
  C         6.9673610182        3.9251226057       27.3709601585
  C         7.8293519013        3.3901067105       23.9746147691
  C         8.4188107980        5.2655398134       22.8571698700
  H         6.2925996638        6.8687129134       23.9400044362
  H         6.1690726597        7.1123940744       25.7016421582
  C         5.0153313075        5.4822508125       24.9846946977
  S         7.1463725103        1.6302240021       26.1294521814
  C         6.7525813294        2.5720713779       27.4577898951
  H         6.9551860966        4.7661625993       28.0470080992
  C         8.1101299693        2.6548099868       22.8803011830
  H         8.5189971192        6.3300358195       22.8929235575
  C         8.6313837287        4.5674830101       21.7599261446
  H         5.1938247393        4.5792128243       24.3345412683
  H         4.9617930295        5.1561171292       25.9771917469
  C         3.7045161001        6.3068630224       24.8363831258
  C         6.2671224675        1.8785535647       28.6555544892
  C         8.5449692406        3.2191764028       21.6709096471
  H         7.9896510038        1.5893783539       22.8541254087
  C         8.9418288324        4.9402682984       20.4877782639
  H         2.9647345240        5.6602553917       24.3466235456
  H         3.7481190342        7.2364223747       24.2687378541
  C         3.1233623943        6.5647625506       26.2089296503
  C         6.2085475061        0.4780659464       28.8235924905
  C         5.9245787718        2.7339660603       29.8300334457
  C         8.9095525491        2.4726682835       20.4023482642
  C         9.1067849811        3.8261746068       19.6807157716
  S         9.2903325745        6.4129677101       19.6913313734
  H         2.4413739314        7.4271168222       26.0461549088
  H         3.8764102791        6.9413916518       26.9385523705
  C         2.3767399030        5.2891565938       26.6124186781
  N         6.4979530622       -0.5120417125       27.8954067551
  C         5.8620477843       -0.0181334280       30.1121506660
  C         5.5143011680        2.2000077371       31.1033067602
  H         5.9358287501        3.8263748167       29.7100990227
  C         7.7468612376        1.5651175818       19.8618883963
  C        10.2292736089        1.6036851383       20.7472672644
  C         9.4987273084        4.1888421661       18.3801825646
  C         9.5685929924        5.5616926921       18.2245811442
  H         1.5603192548        5.1305686331       25.9075915367
  H         3.0665215420        4.4563736366       26.6510309751
  C         1.7611634286        5.4325254392       27.9554895729
  S         6.4249044883       -1.9466759708       28.6360159101
  N         5.9723769088       -1.3982581638       30.1209896588
  C         5.5062986873        0.7117055922       31.2860798269
  H         5.2563741119        2.8599104171       31.9266509913
  H         7.5139904562        0.7135451587       20.5320432785
  H         8.0818935156        1.1262312118       18.9484364970
  C         6.4878491695        2.3932227460       19.4859252269
  H        10.2070714912        0.7871116432       20.0381294545
  H        10.2154766628        1.1280922971       21.7584354493
  C        11.6230258788        2.3168157802       20.5193229888
  H         9.6192655087        3.4129714447       17.6212599392
  C         9.8579305057        6.3035678236       16.9328329181
  H         0.9765349034        4.6232683311       27.9431583396
  H         1.2890554867        6.4110675585       27.8966473788
  C         2.7506695774        5.3600420895       29.0985970749
  C         5.2638920304        0.0353964111       32.5666924991
  H         6.7430547512        2.9365116586       18.5893727952
  H         6.0559589865        3.0471354039       20.1613220829
  C         5.3280064905        1.5265605753       19.1174596633
  H        11.4950275353        3.2267626394       21.0713580467
  H        11.7047450814        2.5605637598       19.4740439131
  C        12.9405396316        1.5664015739       20.8723203521
  C         9.9759330247        7.7317008306       16.7530087671
  C        10.0507982229        5.4820014506       15.6956775463
  H         3.1000885995        4.3261073077       29.1385762256
  H         3.6584003324        5.9684832198       28.9668212235
  C         2.0000367867        5.7055752064       30.3752185697
  H         5.5343935059       -1.0285287746       32.5737500595
  C         4.7972348716        0.4315355913       33.7762169112
  H         5.1100292470        0.9921382458       19.9981179186
  H         5.5132620569        0.7472372036       18.3891606010
  C         4.1391089663        2.3548606884       18.5589013063
  H        12.7371357313        0.9485010445       21.7286643881
  H        13.1647790750        0.8587839803       20.0956736719
  C        14.1217743123        2.5480123149       21.0686797263
  N         9.7004530224        8.6920295635       17.7740018846
  C        10.2396546646        8.3592057609       15.5467913917
  C        10.4378524104        6.1187580636       14.4820951955
  H         9.7693593017        4.4146614964       15.6508316342
  H         2.3866308547        6.6363371905       30.6994817118
  H         0.9587180198        5.5952480855       30.4590689974
  H         2.4694335245        5.1150116526       31.2111181655
  S         4.5965291663        1.9940353783       34.3016268083
  C         4.7476846156       -0.6220188466       34.8523815569
  H         4.0329495447        3.2596091219       19.1479507295
  H         4.4115238910        2.7440875812       17.5272765537
  C         2.8303923324        1.5867138413       18.5299657298
  H        13.7831852167        3.5456514741       20.8726367808
  H        14.6917816563        2.1568680564       20.2480426875
  C        14.8407870060        2.3547494206       22.5294958911
  S         9.7488936482       10.1890367873       17.1251840658
  N        10.2702506993        9.7483942620       15.6129896494
  C        10.5953092267        7.6038751863       14.4324961847
  H        10.5567759915        5.4625644450       13.6584093594
  C         4.4316173039        1.3428130689       35.9472595553
  N         4.4807452404       -0.0110757209       36.0115710731
  O         4.8832943628       -1.7791803434       34.7422841244
  H         2.0548100078        2.3198762186       18.4245418774
  H         2.6411101754        1.2460001797       19.5480107868
  C         2.8100661968        0.4529515923       17.4808561205
  H        14.1491550010        2.1033556301       23.3296760538
  H        15.5034740956        1.5283710716       22.6833805502
  C        15.5235772339        3.6849059733       22.7955271849
  C        10.9284838906        8.3499491970       13.2749847766
  S         4.1542569475        2.2431258051       37.4335574027
  C         4.4872654755       -0.7763166576       37.2671745747
  H         2.5655267784        0.9024217194       16.4885372989
  H         3.8033794654       -0.0223751773       17.4916346710
  C         1.7330324165       -0.5814046180       17.8635233960
  H        15.5144776553        3.9659196268       23.8899558181
  H        15.0752271183        4.5936951167       22.3251080307
  C        17.0086859582        3.5505568949       22.4067964094
  H        10.7027248424        9.3411078939       13.4014673984
  C        11.4123929458        8.0205077458       12.0076709244
  H         3.8497519471       -0.2342289351       37.9966219887
  H         4.0342057509       -1.7146466657       37.1293738393
  C         5.8815967901       -0.8912835352       37.8698107696
  H         1.2200431261       -0.9498386523       16.9485901907
  H         0.9579839076       -0.2252990516       18.5474040024
  C         2.3258757727       -1.8511051018       18.3145462139
  H        17.0533465417        3.2140988617       21.3292550249
  H        17.4505700944        4.5400437406       22.4694804566
  C        17.9478925739        2.6739446054       23.2936780268
  S        12.0213849775        6.5443771037       11.4012506006
  C        11.5213902683        9.1245841478       11.1038176404
  H         6.3757869281       -1.7732807450       37.5303686166
  H         6.5177702291       -0.0281699251       37.8000817032
  H         5.7899170383       -1.0314477206       38.9608157076
  H         2.7895796242       -2.4753640323       17.5841903239
  H         1.4845193207       -2.4365205996       18.6305238867
  H         3.0127074340       -1.7154429579       19.0664201783
  H        18.9753345200        2.7666254180       22.9657111079
  H        17.7602113621        1.6067274398       23.0169428069
  H        17.9061933509        2.8150501721       24.3604353989
  C        12.3594835010        7.4282390593        9.9359297486
  N        12.1986354483        8.7631812522       10.0168275126
  O        11.1456046333       10.2313864978       11.3162234574
  S        13.3649763909        6.8083752611        8.6085402879
  C        12.2973981446        9.7123530685        8.9611496326
  H        12.5255322771       10.7057267099        9.3149726380
  H        13.1703062334        9.5572663302        8.2717567221
  C        11.0015126268        9.6099117810        8.1399696055
  H        10.8209380731       10.5301708418        7.6267551241
  H        11.1868539151        8.7577781382        7.5023844951
  H        10.0715462496        9.2713437631        8.6616320776
  H         1.8020813853        2.0932908261       12.7990357971
  C         2.8267435851        2.3316808493       12.7250027482
  H         3.2535735838        1.3258919247       12.6736295421
  C         2.9880474192        3.0376175146       11.4349885931
  C         3.2912677148        3.0426703010       14.0708424699
  C         4.4097301830        3.2122285418       10.9464605680
  H         2.4821578641        3.9727852041       11.4440669339
  H         2.3414508695        2.4921529517       10.6876403050
  H         3.6927153480        2.2604153583       14.6788959806
  H         2.3973430589        3.5290044049       14.3998655976
  H         4.0652055879        3.7974558779       14.0101074950
  C         4.9879737715        1.9492291910       10.2369960731
  H         4.3737379018        4.0232024485       10.2155314830
  H         5.1295848541        3.5132319209       11.7401886857
  C         5.3506294667        2.1609915239        8.7200502834
  H         4.3630951185        1.0218715672       10.3490276980
  H         5.9352071956        1.6318681999       10.6786984802
  C         6.5925317657        2.9794220185        8.6649519332
  H         4.6006937089        2.7714724231        8.2253507653
  H         5.5182445995        1.1442206364        8.3402056823
  C         7.8879865501        2.1197751333        8.8274214406
  H         6.6837051185        3.3736135011        7.7170981386
  H         6.4304115963        3.8021477087        9.3143151271
  C         9.1568728149        3.0026796341        9.0171568327
  H         7.8891448269        1.6006994674        7.9241788969
  H         7.6696009032        1.3292534259        9.4953294472
  C         8.8211898579        4.3112497569        9.6944601926
  C         9.6454952725        3.7184025954        7.8067352001
  C        10.1796782980        2.2903630638        9.8533607881
  C         9.1684269318        5.4369703006        8.9687324438
  C         8.2796847963        4.6712279333       10.9494016282
  C         9.7262764146        5.0758828079        7.7518044561
  C        10.1084942115        3.0889968779        6.6459711193
  H         9.6415953037        1.8526176310       10.7066887958
  H        10.5181432378        1.4340947960        9.2378449033
  C        11.3144821144        3.0243121019       10.4270000779
  S         8.6497252553        6.8966495375        9.7731320324
  C         8.0649770304        6.0129510196       11.1044129220
  H         8.0244702434        3.9077313324       11.6062443965
  C        10.2598719380        5.6937083014        6.6671907783
  H        10.0741373306        2.0255725855        6.6566393401
  C        10.5979571072        3.7474475648        5.5858716404
  H        10.8947354589        3.6911823947       11.1972547618
  H        11.8393579669        3.6374421839        9.7059984069
  C        12.2231591984        2.1925980542       11.2886144844
  C         7.5085627681        6.6956676648       12.3241226283
  C        10.6313903680        5.0648476862        5.5013501244
  H        10.3652607342        6.7534030516        6.8157367325
  C        11.0022993310        3.3214667780        4.3342634581
  H        13.1596363650        2.7484013837       11.3337285137
  H        12.3944429196        1.2449130409       10.7483077227
  C        11.7012193742        1.8186574119       12.7071539140
  C         7.5373860675        8.0675762911       12.6336261576
  C         7.0124862299        5.8191664323       13.4300320053
  C        11.0053429566        5.7616422951        4.2456527924
  C        11.2633342361        4.4424770312        3.5667280311
  S        11.2344519350        1.8293926107        3.6038215395
  H        10.9528841935        2.4526173136       13.0200048282
  H        11.2791930929        0.8345013266       12.7387665577
  C        12.8934999234        1.8456275110       13.7001723171
  N         8.0044851867        8.9994782697       11.7183215031
  C         7.3819977466        8.5693623249       13.8837853462
  C         6.6398309038        6.3955096739       14.6602684466
  H         6.9475543776        4.7532579042       13.2292038015
  C        12.3301626428        6.5216209630        4.4928834650
  C         9.9391689563        6.6399315058        3.5619709042
  C        11.7226671780        4.0783048759        2.2646075195
  C        11.6607783668        2.7252625673        2.1134020607
  H        13.2373819760        2.8151577982       13.9539480683
  H        13.8217098220        1.3582839559       13.3653698432
  C        12.5646477825        1.0258033067       14.9802918234
  S         8.0880078888       10.4370264447       12.5110730884
  N         7.6005218868        9.9251003047       13.9515085942
  C         6.9971873904        7.7993794336       15.0148795158
  H         6.2607254147        5.8012802070       15.4649441180
  H        12.1478236427        7.0880916804        5.4528273059
  H        12.4700083404        7.3041976258        3.7272155271
  C        13.4785269709        5.5842422215        4.6943040308
  H         9.4964770347        7.3465509669        4.2797147760
  H        10.4160860656        7.2275350375        2.7833727417
  C         8.7074820900        5.8983448514        3.0259421782
  H        11.8932955702        4.9144687273        1.5876261320
  C        12.0110639805        1.9883331811        0.8274506062
  H        11.7772473254        0.3279052797       14.6523971410
  H        13.4526861456        0.4647867689       15.2741534092
  C        11.9872225750        2.0234276151       16.0367581965
  C         6.7648188214        8.3852232945       16.3452928101
  H        13.2571533665        4.8756892743        5.5557313964
  H        13.7313609301        4.9092006236        3.8947456108
  C        14.7327721249        6.4379820206        4.9363063902
  H         8.4763235062        4.9404708442        3.5176998255
  H         8.8305945331        5.6345503651        1.9793326525
  C         7.4480573529        6.7588253148        3.0459489467
  C        12.0726752093        0.5963646543        0.6702279578
  C        12.2584660224        2.7305120779       -0.3793834455
  H        11.1553742049        1.5744204634       16.5153936670
  H        11.3956246512        2.8112619447       15.6167283378
  C        13.0348419364        2.6061245677       17.0285803597
  H         6.8559987285        9.4603007238       16.3775594573
  C         6.4971269368        7.8362543823       17.5854844885
  H        14.6724489251        7.1658481226        5.7345579481
  H        14.8139989880        7.0799392894        3.9783171908
  C        16.0446841355        5.7149383277        5.0431495173
  H         7.2039620230        6.9765375417        4.0472430690
  H         7.6580066567        7.7290911670        2.5846354483
  C         6.2457300940        6.0669611255        2.4278475456
  N        11.8063834984       -0.3355749076        1.6523463070
  C        12.4458459659       -0.0014388464       -0.5448847787
  C        12.5719048677        2.1781909988       -1.5709808938
  H        12.1477391844        3.7601893579       -0.3205529661
  H        13.8572628464        3.0331870811       16.5607205191
  H        13.5681087253        1.8187903059       17.6424344167
  H        12.7064000644        3.3921206039       17.8015005489
  S         6.2256880635        6.2782015949       18.0214467324
  C         6.3003558679        8.8368110216       18.6239264391
  H        15.8102191593        4.7046774684        5.3973705413
  H        16.5046384721        5.6207927223        4.1207981289
  C        16.9525172973        6.4209820756        6.0166873254
  H         5.5101185022        5.8617374081        3.2534120871
  H         6.5213545108        5.0633552411        1.9777337893
  C         5.5238984205        6.9346870626        1.3456178221
  S        11.9450454671       -1.8122155872        1.0513262276
  N        12.5734084752       -1.3399627280       -0.3805937084
  C        12.7113804107        0.7413582078       -1.7224495149
  H        12.7663268156        2.7887677176       -2.4322446554
  C         5.8785092338        6.8807544301       19.6049478005
  N         6.0158618209        8.2446103556       19.7463374904
  O         6.3449995824       10.0229982621       18.4442878469
  H        17.4769047844        7.1770813758        5.4761768545
  H        16.4631255779        6.9034569483        6.8260725615
  C        17.9519235220        5.5214199480        6.7010179789
  H         6.2581892981        7.3012443787        0.6368963608
  H         4.7600342810        6.3405408236        0.8348478120
  C         4.8605007008        8.1786380184        1.9429888936
  C        12.9824350261       -0.0141048058       -2.8855020430
  S         5.4455832997        5.9628048194       21.0557437412
  C         6.0966731920        9.0155829944       20.9950500428
  H        17.4461525733        4.8761948813        7.3716059201
  H        18.4524982627        4.8131177709        6.0747916118
  C        19.0541415218        6.3058669116        7.4698654827
  H         5.4877519699        8.8388765226        2.5657495416
  H         3.9818835354        7.8909157904        2.5645847518
  C         4.1958421087        9.1102755727        0.8291674699
  H        12.5581351774       -1.0302627228       -2.9528033256
  C        13.6331390803        0.4223017571       -4.0578758824
  H         5.3668592563        8.5548822612       21.7670652820
  H         5.7752844493        9.9962342220       20.7698768323
  C         7.4530494658        8.9571102626       21.6852340195
  H        19.4327636151        5.6839648665        8.3230082600
  H        18.4731361683        7.1908023089        7.8747054843
  C        20.2956987745        6.5835016312        6.6480175695
  H         4.1890590084        8.5258121192       -0.1275521781
  H         3.1543518826        9.2585803936        0.9821614741
  C         4.7850587145       10.4870911586        0.6033380818
  S        14.3060639558        2.0169709263       -4.3697617054
  C        13.7664531397       -0.4714290883       -5.1926819674
  H         7.3778463990        8.5593323352       22.7076252958
  H         7.9721082051        9.9244443784       21.7903629600
  H         8.1705046636        8.2924088881       21.1950134710
  H        20.6951830926        5.5965882025        6.3805338096
  H        19.9506578569        7.1146408713        5.7901865515
  H        21.1587058527        7.1017914071        7.0551710006
  H         4.4140518509       11.2119790999        1.3213367524
  H         5.8948971276       10.4968394017        0.6731407613
  H         4.4258361957       10.7095392172       -0.3928993711
  C        14.7277766779        1.4640656280       -5.9685088758
  N        14.4654896798        0.1633527399       -6.2118881824
  O        13.3159839282       -1.6161733762       -5.1726038493
  S        15.2584042617        2.5046886513       -7.3415643014
  C        14.7279448888       -0.5151275132       -7.4667364448
  H        14.8267752566       -1.5929937390       -7.2947290857
  H        15.6265883602       -0.1678635774       -7.8999899387
  C        13.6058376047       -0.2483866182       -8.4484191111
  H        13.2158587262        0.7173898722       -8.3643139783
  H        12.6814016317       -0.9303262651       -8.3146469348
  H        13.9759107761       -0.3490596036       -9.4034409636
