352
 i =    42400, time =    21200.000, E =       100.1548515518
  H        10.9338524028        4.7015495418       31.9092942637
  C        10.7612121801        5.7143510798       32.0581287934
  H         9.6866953725        5.8305873195       31.9673441940
  C        11.4048327702        6.6591768669       31.0234771945
  C        11.1257809646        5.8921249646       33.5302931613
  C        11.6101997640        5.9638886061       29.6979804249
  H        10.8346297855        7.5621595849       30.8699774627
  H        12.3679555362        6.9221944673       31.3832099957
  H        11.5306896067        6.8781713464       33.6776918921
  H        10.2672149772        5.8472007955       34.1902012508
  H        12.0261260992        5.3471915978       33.8705985391
  C        10.3581227753        5.5790714271       28.8736355550
  H        12.1241200762        4.9471832224       29.8517400589
  H        12.3006397932        6.6130605670       29.1965122024
  C        10.5775836698        5.6838078455       27.3854646130
  H        10.1486026699        4.6002334386       29.1411142559
  H         9.5590429458        6.2726683053       29.2951989966
  C         9.5251312118        5.0433367262       26.5360745261
  H        11.4518183967        5.0229138351       27.0810643037
  H        10.7252726251        6.7098188136       27.0351207233
  C         8.3058610173        5.9372121160       26.2361283155
  H         9.9559850351        4.6816061474       25.6126216610
  H         9.3124976580        4.0520530302       27.0369193154
  C         7.0830648551        5.2631729351       25.5288129035
  H         7.9316474251        6.2994289987       27.1839347106
  H         8.5273674406        6.8265412407       25.7480590569
  C         6.8560355710        3.8960184745       26.1986202269
  C         7.5268694106        4.5226225255       24.2448041790
  C         5.7854882806        6.0692043015       25.3456680242
  C         7.0713959067        2.7647772215       25.4128525258
  C         6.5043222624        3.4415789384       27.4929970821
  C         7.5686688178        3.1744768592       24.2157918607
  C         8.0388725679        5.0353018397       23.0076178153
  H         5.9827626613        6.9809176358       24.8454676177
  H         5.4802692151        6.4132648165       26.2395164483
  C         4.6787188368        5.3217218657       24.5701939862
  S         6.5955030489        1.2007983319       26.1404098910
  C         6.2330578001        2.0864853340       27.5625806641
  H         6.3254926702        4.1963872666       28.2664183446
  C         7.8731287985        2.5069867950       23.0921033550
  H         8.2938000812        6.0634227738       22.9530958631
  C         8.3951718211        4.3720138755       21.8912058778
  H         5.0778873175        5.1810324197       23.5936347273
  H         4.4803594728        4.3778937994       25.0223616576
  C         3.3434388171        6.1281577180       24.4288653953
  C         5.8932751036        1.2926174642       28.8176194693
  C         8.2216905636        3.0429395863       21.8083884561
  H         7.8420963742        1.4335219047       23.0997259774
  C         8.8396974965        4.7718087639       20.5985748361
  H         2.7328663527        5.6880649176       23.7145500697
  H         3.5858232718        7.1164687614       24.1228034816
  C         2.5009724387        6.1817603751       25.7662823170
  C         5.8682339537       -0.1305330565       29.0225675975
  C         5.3691017914        2.0526250445       29.9748837722
  C         8.5784878407        2.3797577915       20.5506169511
  C         8.8997587480        3.6860576047       19.7802784540
  S         9.2562740590        6.2840063615       19.7969474534
  H         1.5936930376        6.7427386210       25.6383922062
  H         3.0974546349        6.7770307295       26.4837136046
  C         2.1484569920        4.8837614871       26.3878268492
  N         6.0516709051       -1.0915266966       28.0161062135
  C         5.6262673970       -0.6613926771       30.3118864036
  C         5.1597904962        1.5460292808       31.2188497213
  H         5.2650065279        3.1004683480       29.8372003682
  C         7.4579193752        1.5823672549       19.9289191291
  C         9.9498015840        1.5785686521       20.6447717149
  C         9.2931887104        4.0854277921       18.5352123204
  C         9.4576740063        5.4040143799       18.3645118793
  H         1.4292614168        4.4655012077       25.6893437321
  H         3.0282098140        4.2605425246       26.5858451483
  C         1.4562341979        5.1112606813       27.7276236724
  S         6.2771231959       -2.4999127842       28.8282301288
  N         5.7353260795       -2.0042101024       30.2893520703
  C         5.3719180435        0.0780606993       31.4418426042
  H         4.6200964538        2.2119385473       31.9114293632
  H         7.2792143608        0.7635710048       20.6478456103
  H         7.8087081626        1.0962978951       19.0189879839
  C         6.1737468033        2.4073486068       19.7915714970
  H        10.1852122879        1.2988241331       19.6100087394
  H         9.7329368734        0.5916335110       21.0916750717
  C        11.2045106501        2.2432895261       21.3341943145
  H         9.4590239536        3.3330268879       17.7764916001
  C         9.8073832299        6.0763247270       17.0793577273
  H         0.7873670344        4.2558156560       27.8650238412
  H         0.7898234962        6.0535361853       27.5775842663
  C         2.3887894684        5.1789615548       28.9327106522
  C         5.0836217135       -0.5848935705       32.6005301755
  H         6.3329663768        3.4479113641       19.5715282668
  H         5.6274109027        2.5165058451       20.7355124624
  C         5.2400731300        1.8206793687       18.6201590104
  H        10.9810387945        2.7911705335       22.2646757198
  H        11.5953552039        3.1169917864       20.7660716233
  C        12.3891449987        1.2969423637       21.6384599632
  C         9.8980289946        7.4656624152       16.8691917154
  C        10.0766043021        5.3441698370       15.8314952582
  H         3.1421497426        4.3728217062       28.9777045805
  H         3.1005197586        6.0480969703       29.0117363245
  C         1.5874371162        5.2222087267       30.2128505407
  H         4.9124296660       -1.6297007270       32.4378949078
  C         4.9942024110       -0.1437155600       33.8900663905
  H         5.5082029247        0.7735752356       18.5252833472
  H         5.7033505453        2.3922346557       17.7252042349
  C         3.7671401912        2.2443399395       18.5804737135
  H        12.1553127685        0.6349218093       22.5110127229
  H        12.5627207302        0.6907425768       20.7689156176
  C        13.5960633458        2.0711448979       21.9893732641
  N         9.7478962582        8.4487515994       17.8458591286
  C        10.1673551178        8.1017608172       15.6491330044
  C        10.3855879253        5.9520925688       14.6112342017
  H         9.9458436652        4.2667193473       15.7592564560
  H         2.2480017835        4.9945806991       31.0896822881
  H         1.3176881557        6.1886437540       30.3632645704
  H         0.7505977530        4.5363801489       30.1890090263
  S         4.9983724375        1.4579896120       34.2887241666
  C         4.8676968324       -1.0646274782       34.9969230888
  H         3.6237674810        2.9997048518       19.3379602295
  H         3.5871701462        2.7978259960       17.5664637762
  C         2.9283986275        1.0592399686       18.7677747681
  H        13.2237270107        2.9740010418       22.4057526531
  H        14.0677772690        2.3767333660       21.0296444862
  C        14.6562523459        1.3790278459       22.8165467050
  S         9.7292531158        9.9719076914       17.2014157779
  N        10.1235573598        9.4750333010       15.7347550753
  C        10.4329580408        7.4186577068       14.4383662291
  H        10.5975655068        5.3494888393       13.7531456461
  C         4.6182755747        0.9140643507       35.9175094723
  N         4.5003938319       -0.3956938535       36.0541372066
  O         4.9428769733       -2.3080226667       34.8250284434
  H         1.9067540247        1.5295089662       18.6211088116
  H         3.0873705611        0.6848659818       19.7769457188
  C         3.1485969617       -0.1452839660       17.7794659112
  H        14.3102974293        1.1908811625       23.8587093438
  H        14.9253646096        0.4176777253       22.2841278386
  C        15.9462284162        2.2026081347       22.8585986172
  C        10.7974036760        8.1577013559       13.2514271630
  S         4.0415962520        1.9371686189       37.2647669125
  C         4.3353307063       -1.0276151450       37.3367493595
  H         3.4286302499        0.0819647502       16.6487145666
  H         3.9316360268       -0.8455091780       18.1469832819
  C         1.8723782663       -0.9993237301       17.6771690029
  H        15.7995893277        3.2357488496       23.3141630720
  H        16.3154185939        2.5152165994       21.8641272591
  C        17.1239246020        1.5508660763       23.4797856996
  H        10.6258445661        9.2232792290       13.3923726871
  C        11.3065565759        7.8502329300       12.0254727316
  H         3.5418313633       -0.5847477101       37.9414463914
  H         3.8505599809       -2.0165653034       37.3018914791
  C         5.5802821242       -1.1523475617       38.1498716206
  H         0.9695529517       -0.5661277276       17.2696177280
  H         1.5260966206       -1.2282538827       18.7058935376
  C         2.0792117903       -2.2882215855       16.9662288144
  H        17.4066379996        2.2536635273       24.2833965952
  H        16.9993138603        0.5683193281       23.9428669111
  C        18.1288735546        1.4961601649       22.3552765667
  S        11.9002700492        6.2672638757       11.5935784044
  C        11.4095282831        8.9848724061       11.0056259954
  H         6.5199916155       -1.0012362849       37.5794480492
  H         5.5416856077       -0.6094410144       39.0975989085
  H         5.5142120658       -2.2060011719       38.4086408717
  H         1.1850258911       -2.9894689143       16.9019892472
  H         2.8694861603       -2.8911439629       17.3290356904
  H         2.3405758837       -2.1091680884       15.9166790661
  H        19.0156528017        0.9462708228       22.7572989362
  H        18.4992178251        2.5183040115       22.1378585234
  H        17.8500271801        0.9727173133       21.5013077254
  C        12.1519338164        7.0658865153        9.9736249714
  N        11.9693511983        8.4195275263        9.8813349433
  O        11.0765531472       10.0874763667       11.2472850605
  S        12.8234509063        6.3389735170        8.5032024986
  C        12.0470487174        9.1889560626        8.6829785767
  H        12.1362315644       10.2479098401        8.8575622151
  H        12.8708928580        8.9146749486        8.0774975382
  C        10.7456392175        9.0189091845        7.8695988587
  H         9.8846080969        9.2461595791        8.4285422252
  H        10.7443764861        9.7347931977        7.0143554075
  H        10.6333691704        8.0057333977        7.3550879057
  H         4.1162543233        1.7617351693       11.9372053106
  C         3.4890859747        2.6483654198       12.0855436305
  H         4.2092462945        3.4549730584       12.1079898096
  C         2.7132225698        2.8425755752       10.8262626238
  C         2.7380876108        2.3668367880       13.4027043127
  C         3.6321133649        2.9568904250        9.6622931794
  H         2.0189533799        3.6389142542       11.0765670010
  H         2.1210742622        1.9049486992       10.6909153828
  H         2.1696934288        3.0789169003       13.9067163345
  H         3.5303727978        2.2952041402       14.1926891406
  H         2.1773279141        1.4476238162       13.3625642987
  C         4.3204721907        1.6166214583        9.3082383410
  H         3.0756950943        3.2163927659        8.8081704812
  H         4.2706436327        3.8315572254        9.7319574893
  C         5.3740053695        1.6260657633        8.1909102413
  H         3.5353594107        0.9593780943        8.8646628760
  H         4.7274214106        1.0937304235       10.1282491435
  C         6.6073923004        2.4478638418        8.5092327908
  H         4.9023749161        1.9087624422        7.2381529121
  H         5.7639455479        0.6297171913        8.0166829921
  C         7.9011184265        1.8332329803        8.8457630418
  H         6.8425653566        3.0681872781        7.6430246421
  H         6.3739370182        3.0140158423        9.4077475768
  C         9.2013522185        2.7905741010        8.9321047043
  H         8.1035228175        1.1150207672        8.0840528257
  H         7.7468822836        1.1993999879        9.7714595850
  C         8.8017531320        4.1446208395        9.5778783871
  C         9.5066990932        3.5140833919        7.7126418683
  C        10.3211762819        2.1547988543        9.7570264319
  C         8.8487866703        5.2589146923        8.7711148462
  C         8.4014976366        4.4077395337       10.8924950177
  C         9.3922803246        4.8681598698        7.5269350519
  C         9.8564514882        2.9124654365        6.5111036681
  H         9.9229968482        1.8337527441       10.6968427950
  H        10.6350247933        1.1932912235        9.3306670120
  C        11.5964743439        2.9909763695        9.9226621413
  S         8.4350449269        6.7058652774        9.5371296890
  C         8.1310685708        5.7512250708       11.0035574051
  H         8.2919258190        3.6101872901       11.6254241346
  C         9.8182562013        5.4688014680        6.3842003367
  H         9.9734096343        1.8662655579        6.5459438282
  C        10.1802104307        3.5718429630        5.3062874840
  H        11.2480321414        3.8715603318       10.3855385284
  H        11.8412134824        3.4425459482        8.9501854842
  C        12.6037059954        2.3551219603       10.8590836066
  C         7.5388619410        6.3254687593       12.2361813163
  C        10.2489784255        4.9126017273        5.2365801426
  H         9.6548911048        6.5675794727        6.4260718026
  C        10.5585142900        3.2022102720        4.0057047633
  H        13.5761012502        2.6706105902       10.5872179126
  H        12.6625725004        1.2507788724       10.7061861852
  C        12.2168687162        2.6107675038       12.3347544332
  C         7.5990470352        7.6653441422       12.5676200775
  C         7.1262767345        5.5048082015       13.4058485984
  C        10.7994833758        5.6068763547        4.0109247473
  C        10.8933321282        4.2933732519        3.2082508160
  S        10.7892861195        1.7275320320        3.1856426093
  H        12.6533886183        3.5637860562       12.6456200040
  H        11.1581343454        2.8521470201       12.5026045365
  C        12.5482836470        1.6254348130       13.4613166448
  N         7.9701754792        8.6256450619       11.6199659454
  C         7.3262661204        8.2508502194       13.7804050253
  C         6.7147712676        6.0300351962       14.6208752854
  H         7.0017417949        4.4686331962       13.2415864294
  C        12.2941072012        6.0014591445        4.2215278788
  C         9.9040490461        6.6085672476        3.2590660579
  C        11.3165894402        3.9279874039        1.9212674295
  C        11.3283365718        2.5578982158        1.8241386336
  H        13.5799255357        1.3422721409       13.5227276885
  H        12.0035340428        0.7821536870       13.1761009342
  C        12.0243483568        2.1365321440       14.8652197501
  S         7.9964924177       10.1128069851       12.2418050135
  N         7.5437318174        9.6673262559       13.7921963690
  C         6.9299670045        7.4823973775       14.9253344153
  H         6.2485621798        5.3251281182       15.2771212153
  H        12.3137409718        6.8241736454        4.8730743074
  H        12.7537301537        6.3312590446        3.3310669706
  C        13.2780348049        4.9467928737        4.7650798150
  H         9.4580847835        7.3541014139        4.0012737947
  H        10.4252254710        7.1831925721        2.5075322413
  C         8.6748219419        5.9333498932        2.5357204686
  H        11.4170827062        4.7407469729        1.1798270371
  C        11.7425541004        1.7425160885        0.6291564585
  H        11.8478338536        3.2304294629       14.8660360664
  H        11.1387496429        1.5629749352       14.9177819809
  C        12.8747219734        1.8280117795       16.1017161052
  C         6.7439768197        8.1595434350       16.1681861920
  H        12.8681020744        4.3988143598        5.6313262208
  H        13.5975115576        4.1687345754        3.9997962634
  C        14.5396038264        5.6832518330        5.1556928994
  H         8.1789406216        5.3910242846        3.3173031509
  H         8.8378385739        5.1953776788        1.7729700830
  C         7.6490347761        6.9794582224        1.9809461505
  C        11.8402522390        0.3152923665        0.5041987089
  C        11.8335604792        2.4567708439       -0.6616942667
  H        13.7046817065        2.5371804373       16.1308546854
  H        13.3761279416        0.8148513654       16.1701229650
  C        12.0484349083        1.9629339086       17.4640984732
  H         6.9001688810        9.2516621943       16.2280594897
  C         6.4814131075        7.5640222294       17.3826336501
  H        14.4599138140        6.3163357804        5.9897697165
  H        14.8573907567        6.1595509335        4.1833746888
  C        15.6859399598        4.7231197601        5.5250049376
  H         7.1431170203        7.4643350506        2.7593368979
  H         8.1208908007        7.8086748446        1.5048060830
  C         6.6851076658        6.2843680521        1.0520287472
  N        11.5676196369       -0.5760661600        1.5360629026
  C        12.2255689706       -0.3534178160       -0.6169688559
  C        12.1822281537        1.7586698821       -1.8702329827
  H        11.6996046399        3.5328895432       -0.6990854838
  H        11.0101926546        1.8636406978       17.3401975022
  H        12.3559661123        2.9347920758       17.8701976800
  H        12.3789602864        1.2702589208       18.1820531412
  S         6.1006546654        5.9654895570       17.8024077591
  C         6.4580318459        8.4842817818       18.5204768827
  H        15.2350303614        3.7629621363        5.6596083216
  H        16.3867707158        4.5838365079        4.7367171465
  C        16.3331030364        5.2102028686        6.8421473980
  H         6.2169889782        5.4819966120        1.5737131664
  H         7.1251863100        5.8851610803        0.1392754535
  C         5.7495266306        7.3823379395        0.5220258444
  S        11.6072561253       -2.1366318366        1.0163297106
  N        12.2280784246       -1.7671733627       -0.4886904286
  C        12.3511575996        0.2903051003       -1.9075353574
  H        12.2215759271        2.3173378916       -2.8045842115
  C         5.7979269956        6.5497909273       19.4669145220
  N         5.9525727790        7.8652917385       19.6301240952
  O         6.8134102895        9.6628107465       18.4673007435
  H        16.5199010732        6.2905336620        6.6772724553
  H        15.7522384667        5.2096800338        7.7574066084
  C        17.6798584345        4.5233537730        7.1319604640
  H         6.2771030204        8.3110232077        0.4322383321
  H         5.5605195903        7.1269897480       -0.5165747911
  C         4.5065320138        7.7927326960        1.3795662090
  C        12.5833345875       -0.5239024182       -3.0727032568
  S         5.2678814657        5.7056448913       20.8591638596
  C         5.8143173788        8.5660058017       20.9907037877
  H        17.6165878997        4.2014490363        8.1497027359
  H        17.7572425885        3.6267865211        6.4869143419
  C        18.7992812591        5.5779275730        6.9844897935
  H         4.6472128156        7.1739380184        2.2757094499
  H         3.6021627528        7.3627667328        0.9053441357
  C         4.3422997940        9.2816295863        1.4547698844
  H        12.5286553258       -1.6218727002       -2.9368185868
  C        13.1119631261       -0.1934114168       -4.2896273920
  H         5.0967668697        8.1340679745       21.6694259625
  H         5.4942428040        9.5930493949       20.7347894244
  C         7.1836188048        8.6568457208       21.7403106043
  H        19.5834843683        5.1452642277        7.5853966852
  H        18.6817597396        6.4816758015        7.6031075759
  C        19.1461169811        5.8592159410        5.5307167498
  H         3.4989068791        9.4761457702        2.0224634142
  H         5.1832669861        9.8403075943        1.8670988899
  C         4.1335648359        9.9504683058        0.0694228136
  S        13.9011980664        1.2858086035       -4.7049002428
  C        13.2218676865       -1.2193115886       -5.3259660651
  H         7.9554344546        9.0874919498       21.1073864464
  H         7.4675651441        7.6725249483       22.0536637181
  H         7.1371598903        9.3531595589       22.6152871224
  H        18.7112540747        5.1767668020        4.8484817901
  H        18.6164544220        6.8305182554        5.3515726169
  H        20.1640264562        6.0822160690        5.2954635261
  H         3.1888395810       10.4688839663       -0.0422624075
  H         5.0184419341       10.5587449003        0.0115016055
  H         4.2155341435        9.2695427980       -0.7403672736
  C        14.0883086922        0.6651481379       -6.3400714120
  N        13.8697089329       -0.6517581253       -6.3806644527
  O        12.7603754649       -2.3054239250       -5.0992572160
  S        14.9404492478        1.3812504142       -7.5892054037
  C        14.0733952835       -1.4091312593       -7.5888098673
  H        14.2159240949       -2.4469150086       -7.3249078508
  H        15.0298535860       -1.0987396197       -8.0450831610
  C        12.8106300691       -1.3932680647       -8.4242120903
  H        11.9802632991       -0.7657976662       -8.0857200693
  H        12.4938858580       -2.3919896322       -8.4598644861
  H        13.0150960002       -1.2042572804       -9.5049319453
