352
 i =   114900, time =    57450.000, E =       100.0431754083
  H        10.5435003438        4.6466050140       31.7602882980
  C        10.5247120901        5.6582675947       32.1904195385
  H         9.5109627168        6.0377283781       32.0821113846
  C        11.4463084050        6.4701796145       31.2584431607
  C        10.9176057296        5.4760673872       33.6425179369
  C        10.9206972085        6.5774975629       29.8409470702
  H        11.7004828884        7.4662019400       31.5377768272
  H        12.3944131634        5.9281728912       31.1602430973
  H        10.5545503970        6.3212630287       34.2309108113
  H        10.3744050268        4.6337039657       34.0692787090
  H        11.9613769738        5.4161892313       33.8272223428
  C        10.4522052402        5.2589607364       29.1925523048
  H        11.6710971557        6.9442420295       29.1805011221
  H        10.0393616263        7.2362250602       29.8610558676
  C        10.1206793894        5.5131180112       27.7420566257
  H        11.2292169378        4.5720668132       29.2352690409
  H         9.5469425827        4.9464373126       29.6769277958
  C         8.8038301973        4.7714656877       27.3103406509
  H        10.8785771756        5.1655302921       26.9921256823
  H        10.0885069320        6.6359342883       27.6020166049
  C         7.8078015448        5.6486698792       26.6147815756
  H         9.0983687838        3.9910181293       26.5655032087
  H         8.3519528295        4.2161744112       28.1164473996
  C         6.7105416824        5.0206357898       25.6859167301
  H         7.4204909815        6.2059803555       27.4532542541
  H         8.3180660633        6.4129309067       25.9635371874
  C         6.2501347070        3.6896079592       26.2945161200
  C         7.1963311301        4.3475342622       24.4545017950
  C         5.5078844895        6.0305318168       25.6237451740
  C         6.4770489182        2.6034959682       25.4840372713
  C         5.5287266116        3.3116529707       27.4133993870
  C         7.0593014736        3.0321958464       24.3060925686
  C         7.5930320467        4.9887464531       23.2809881794
  H         5.9257522774        6.9086732132       25.1794931715
  H         5.1347849214        6.2904819337       26.6167022009
  C         4.3043087358        5.7528112525       24.7603876595
  S         5.9897716194        1.0721360832       26.0816526972
  C         5.4461551606        1.9135963791       27.5043676541
  H         5.2295641241        3.9951851398       28.1702489795
  C         7.4238833304        2.4829457673       23.1341347954
  H         7.6214467883        6.0452252450       23.3850609334
  C         7.9689224765        4.4444725828       22.1422180733
  H         4.5204358158        5.8379537174       23.7305111420
  H         4.0266901227        4.6902821200       24.9192429847
  C         3.0706131937        6.6434249310       24.9210341979
  C         5.1275964888        1.1924932895       28.8108127558
  C         7.9508140425        3.1322062808       21.9744624178
  H         7.3569298596        1.4096251187       23.0032710006
  C         8.5097242351        4.8887294342       20.9538768568
  H         2.3575247347        6.5758082222       24.1147058759
  H         3.3682668163        7.6950971947       24.6940912889
  C         2.3425408846        6.7029622968       26.2484070837
  C         5.2285754362       -0.2384107495       29.0136317865
  C         4.7112093889        1.9834307428       29.9898769971
  C         8.4422609791        2.4128137811       20.7708040108
  C         8.7620073059        3.7989168144       20.1199802776
  S         8.9680588281        6.3724942739       20.3765042260
  H         1.4853372310        7.3160438388       26.2904692149
  H         2.9157437263        7.1988540225       27.0272923302
  C         2.0003716460        5.2731705559       26.7634077258
  N         5.5772194772       -1.1611155731       28.0994167371
  C         5.0955005304       -0.8178673747       30.3078554618
  C         4.5799252461        1.3730123881       31.2692679488
  H         4.6692631152        3.0940186536       30.0225014039
  C         7.3257120555        1.6701708750       19.9751256310
  C         9.6763959643        1.5892344521       21.1390981545
  C         9.3613749180        4.2364958879       18.9349461700
  C         9.4728499665        5.6380103287       18.8809675842
  H         1.4607760360        4.8392338400       25.9160654324
  H         2.8680703666        4.6436354698       26.9171694957
  C         0.9467194703        5.2752241697       27.9147960235
  S         5.7515242695       -2.6382043469       28.8264781680
  N         5.3488760456       -2.1805414608       30.3153174641
  C         4.7565066592       -0.0643697890       31.4984805204
  H         4.2397452232        1.9421020201       32.0914883081
  H         6.7281880517        1.0948328229       20.6553074772
  H         7.9037771554        1.0718234525       19.2334977265
  C         6.4573136479        2.5582006603       19.1985033576
  H        10.0490592996        1.3443660457       20.1521458035
  H         9.4203294113        0.5920595179       21.5885329589
  C        10.7963871385        2.3025481721       21.9810665934
  H         9.5567385342        3.4728700483       18.1679144409
  C         9.7610118663        6.3752598491       17.5715062888
  H         0.3150013297        4.3891416902       27.9666793004
  H         0.2457941493        6.0462676599       27.7089664595
  C         1.5242744341        5.5485886960       29.3045064266
  C         4.6349343750       -0.7687938576       32.7331829461
  H         6.9532210473        3.1828259344       18.4370022770
  H         5.8418766330        3.1602535092       19.8959395747
  C         5.3440293664        1.7561125670       18.5711611273
  H        10.4992120109        2.6656887661       22.9417348817
  H        10.8711817181        3.2446600046       21.4772329977
  C        12.0838020680        1.4383054692       22.1268981932
  C         9.7659709963        7.7932322814       17.4253577068
  C         9.9401673640        5.6748371836       16.2763714912
  H         1.6690946057        6.6424849764       29.3221501451
  H         0.6852453295        5.2992693751       29.9904371934
  C         2.8460351174        4.9194393962       29.7263714896
  H         4.7408258383       -1.8262965036       32.6596144293
  C         4.3189413295       -0.4502260407       34.0157201518
  H         4.7045120718        1.4788584501       19.4424908688
  H         5.7587558139        0.8411528924       18.0100976668
  C         4.4044804902        2.4461909125       17.4577053746
  H        11.9351610785        0.6174907049       22.7900308193
  H        12.3658317375        0.9793601002       21.1936752082
  C        13.2781918366        2.2476667167       22.6390459208
  N         9.6546202535        8.6430174266       18.4731161598
  C        10.0661524269        8.4421440213       16.2187443271
  C        10.3162491003        6.3004648278       15.0608865543
  H         9.7857503700        4.6482986234       16.2306217113
  H         2.5683072776        4.4338633402       30.6036965438
  H         3.2859746330        4.2483294902       28.9820284692
  H         3.6473024132        5.6042783273       29.9968683660
  S         3.9664921495        1.1496178386       34.6228243458
  C         4.1462038484       -1.4870531610       35.0481122572
  H         4.2807193952        3.5448632703       17.7416467677
  H         4.8292786276        2.3919707822       16.4400406568
  C         3.0814638572        1.8705073217       17.3522065991
  H        13.0563366287        2.8404875398       23.5034544993
  H        13.3329321684        2.9521803219       21.8677428896
  C        14.5670727101        1.4138788444       22.5129573134
  S         9.9983572540       10.1984046175       17.9542789485
  N        10.3272371033        9.8303750356       16.4166922172
  C        10.4658099645        7.7760157166       15.0834933272
  H        10.3492684335        5.6239433888       14.1939801987
  C         3.7153265389        0.4595328347       36.1625814139
  N         3.8529867258       -0.8995812265       36.2304861594
  O         4.5541751667       -2.6507839657       34.7903617422
  H         2.5555158789        2.4379808278       16.5283465463
  H         2.4962487416        1.9098119862       18.2713596660
  C         3.1659214936        0.4498102705       16.7768802966
  H        14.7942796172        0.7416451237       23.3346646656
  H        14.4441012321        0.7099348357       21.6770800566
  C        15.7446367018        2.3592922028       22.2168070933
  C        10.6694395706        8.5032461642       13.8281057507
  S         3.2637006225        1.2838211508       37.7128461243
  C         3.8050541107       -1.6822662099       37.4333217977
  H         2.5618515503        0.5418960587       15.8914329549
  H         4.1719264601        0.1490999352       16.5033703548
  C         2.4164219781       -0.5577999795       17.6085075503
  H        15.5836870190        3.3091425582       22.7629839234
  H        15.6498980536        2.6626869151       21.1133426608
  C        17.1368052328        1.9656934224       22.6032414429
  H        10.6161053769        9.6041453072       13.9656193525
  C        11.1634301507        8.0815289282       12.5753889954
  H         3.1047445620       -1.2972816138       38.1661669737
  H         3.3395153434       -2.6802905602       37.3263950678
  C         5.1869181172       -1.7784279380       38.0461565197
  H         1.3714884510       -0.4264427650       17.8315248748
  H         2.9195358992       -0.6350866515       18.6173407054
  C         2.3559834009       -1.9738532828       17.0988663202
  H        17.4527661307        1.1113196027       22.1223830881
  H        17.7495758813        2.7599691193       22.1772413656
  C        17.5051047478        1.7905291346       24.0834781629
  S        11.6679271567        6.4698535816       12.2043114529
  C        11.4203314040        9.1136873103       11.4984844856
  H         5.2482415367       -1.7150186575       39.1038100962
  H         5.5488037808       -2.8014523914       37.6624953834
  H         5.8549627847       -1.0174077609       37.6612950758
  H         1.7839535247       -2.0391943188       16.1436339220
  H         1.7932030682       -2.5482476325       17.8317737467
  H         3.3516964418       -2.4022834723       17.0329865644
  H        16.7378706672        1.3090154554       24.6728643500
  H        17.8241798936        2.6627983898       24.6824921287
  H        18.3061413310        1.1005034926       24.0061207136
  C        12.0402904819        7.0864755176       10.6401199263
  N        11.9412802600        8.4424687775       10.4828948970
  O        11.2558795955       10.3064398603       11.5124197810
  S        12.9261882079        6.1764234794        9.4348199289
  C        12.0874288270        9.0587471135        9.1819919338
  H        12.0975141727       10.1006318990        9.3017441309
  H        13.1022967219        8.7877930581        8.8352620479
  C        10.9835038871        8.5760878436        8.2091064437
  H        10.7671455739        7.5186880919        8.2356934209
  H        10.1662281681        9.1896987028        8.4876540182
  H        11.1319855695        8.8164791845        7.1293863676
  H         2.6794079764        4.2522028751       12.2851163494
  C         3.0494933156        3.2451757946       12.2160507508
  H         2.5244904322        2.7417912077       13.0183930054
  C         2.7168789791        2.6369092340       10.8242763061
  C         4.5744641146        3.2912433902       12.4889347110
  C         3.7574428318        2.8476566022        9.6786897315
  H         1.7757523741        3.0400008712       10.3284585942
  H         2.6776247763        1.6010145220       10.9874855581
  H         5.1077891047        3.8774205279       11.7336005739
  H         4.8049103082        2.2551895142       12.5376880687
  H         4.8778254868        3.5918209094       13.5028754423
  C         4.6976077985        1.6852991632        9.4514783737
  H         3.1216108490        2.8340772877        8.7632859252
  H         4.1004922714        3.8689336200        9.7432735525
  C         5.5296857700        1.9089046581        8.2148268160
  H         4.1642460057        0.8050781948        9.2225025215
  H         5.1725669232        1.3197862721       10.3450458539
  C         6.8240477978        2.7159249528        8.4847960888
  H         4.9420781502        2.3145376862        7.4164318147
  H         5.7552189988        1.0226014934        7.6005867836
  C         7.9318570357        1.8539000316        9.1050079099
  H         7.2779866547        3.1454720157        7.6086829992
  H         6.5709981602        3.4831202345        9.1633021791
  C         9.2307333388        2.6713099586        9.3652164041
  H         8.1831654713        0.9952195768        8.4474959110
  H         7.5104868133        1.5089576086       10.0192469909
  C         8.8838254741        3.9823262703       10.0671492446
  C         9.5677831370        3.3801965006        8.0981831804
  C        10.4559479387        1.9571049493       10.0773555031
  C         8.9399698566        5.0630777374        9.2214107873
  C         8.4244444248        4.4665961282       11.3322996740
  C         9.3925457351        4.7080161148        7.9323116962
  C        10.0122056009        2.7598260401        6.9983512672
  H        10.0169015650        1.5110780552       10.9640183038
  H        10.7091169780        1.0667387383        9.4116642499
  C        11.6279451907        2.8587444424       10.4498416271
  S         8.4110544650        6.6300694557        9.8451412910
  C         8.1444639148        5.8032428926       11.3836838748
  H         8.4077279003        3.8577184741       12.1215079043
  C         9.5903468676        5.2782548354        6.6976861782
  H        10.0039800177        1.6671322511        6.9979490283
  C        10.2487577291        3.2498000047        5.7836117128
  H        11.3848092841        3.9601861748       10.5327987176
  H        12.3037599205        2.8475947337        9.6144185789
  C        12.3560892942        2.2918826815       11.6601515511
  C         7.7269335642        6.4835245126       12.6120385292
  C        10.0457364985        4.5783755204        5.5859292838
  H         9.5825366064        6.3166763586        6.6122570806
  C        10.6717141242        2.8420969250        4.5557561008
  H        13.3158640582        2.8360187558       11.7355957568
  H        12.6467470097        1.2837757654       11.4022283900
  C        11.6141541290        2.4001279372       13.0226379297
  C         7.7305986436        7.9054974981       12.8720438429
  C         7.2111010452        5.6911492117       13.7993064734
  C        10.4814876910        5.2512463202        4.3031959932
  C        10.8851761158        3.9469460543        3.7302730866
  S        11.0236072542        1.3553354312        3.7741849459
  H        11.2873948142        3.3943791248       13.1741671673
  H        10.6468525092        1.8725323135       13.0690327257
  C        12.5199763664        2.1040226393       14.2479919443
  N         8.0696013223        8.7901246587       11.8722716822
  C         7.3320947624        8.4913238786       14.0511207116
  C         6.7500934055        6.2944376038       14.9830577901
  H         7.1934044881        4.6107252019       13.7360088422
  C        11.6930634987        6.2305282120        4.5359951008
  C         9.3733146948        5.7996476527        3.4041380038
  C        11.3446660762        3.5741008213        2.4364449178
  C        11.3386470566        2.2054907064        2.3082679515
  H        13.3770486757        2.7507026787       14.1593214371
  H        12.7871850438        1.0561269859       14.1248109392
  C        11.9887970942        2.3702374080       15.5902580250
  S         7.8802790748       10.2987975797       12.4560287572
  N         7.3978497715        9.8830530012       13.9751340834
  C         6.9002430567        7.7582095319       15.1797244755
  H         6.4453355766        5.7400491760       15.8728885914
  H        11.4778373532        7.1752908509        5.0930848281
  H        12.0569275555        6.5841694040        3.5963050645
  C        12.9013588383        5.4898976441        5.2441572706
  H         8.8588799268        6.6400513384        3.8764584426
  H         9.8812671779        6.1702161911        2.5094538090
  C         8.3312260207        4.8200749978        2.9535437222
  H        11.6065438448        4.2787408026        1.7597425299
  C        11.6826033771        1.4138777550        1.0479019747
  H        11.5385201262        3.3204486282       15.5370695274
  H        11.3770587025        1.5598043618       15.9499361509
  C        13.1773503364        2.4165577704       16.5979359264
  C         6.7313452735        8.4427431284       16.4044279031
  H        12.5725226113        4.7077015842        5.9201026886
  H        13.4696614662        5.0148741967        4.4887917907
  C        13.8744042676        6.3970182847        5.9157382641
  H         8.2104296854        4.1691004243        3.7877477423
  H         8.6993206283        4.3750539156        2.0201661758
  C         6.9535130407        5.4404007304        2.4515544576
  C        11.7084305371       -0.0167609546        0.8965663425
  C        11.9339443603        2.1102029972       -0.2090793822
  H        13.9580626917        3.0694603673       16.2477009718
  H        13.4900499400        1.3569924952       16.6661220426
  C        12.8410344311        2.8138294710       17.9950154359
  H         7.0526364969        9.5040678032       16.3225435121
  C         6.3270735258        8.1094493127       17.6907727089
  H        13.3086518322        6.8464409372        6.7736553514
  H        14.1999968380        7.0974162147        5.1406919011
  C        15.0643071910        5.7111411949        6.7010570311
  H         6.2672911840        4.5885411386        2.5169636186
  H         6.5513636017        6.1254516101        3.1384884654
  C         7.0231933746        6.0389870587        0.9804167927
  N        11.4155099051       -0.8681466136        1.9411041862
  C        11.9585577365       -0.6623291848       -0.2817189271
  C        12.2594467224        1.4218296367       -1.3758039079
  H        11.8725271122        3.2188447761       -0.2393605762
  H        13.7318890527        2.5581695387       18.5913165156
  H        11.9535820128        2.2413573353       18.2152434339
  H        12.5447572932        3.8447807126       17.9705541657
  S         5.8410294193        6.6074423047       18.2479617305
  C         6.3857500700        9.2138691380       18.7078644110
  H        15.1351799657        6.2644369466        7.6090255537
  H        14.8883280349        4.6409503792        6.9702405966
  C        16.4039951351        5.7628831792        6.0352711073
  H         7.1524016907        5.2886705746        0.1998649990
  H         7.9048720102        6.6824161775        0.8952665872
  C         5.8028921462        6.8084640089        0.5976851353
  S        11.5324337328       -2.4161096267        1.4214565653
  N        11.9122563239       -2.0920829815       -0.1469002559
  C        12.2354308044       -0.0614143807       -1.4931359312
  H        12.4799845739        1.9880989213       -2.2378223231
  C         5.6728766739        7.4330740038       19.7705186480
  N         5.9409285267        8.7469411391       19.8009034616
  O         6.6464542851       10.3139119118       18.4379224490
  H        16.2610962530        5.4035622242        5.0280636456
  H        16.7308096398        6.8080953000        5.9127433258
  C        17.4660626828        4.9869141947        6.8878086380
  H         5.7952742145        7.0702355687       -0.4559847879
  H         4.8953395230        6.1449831936        0.7492530053
  C         5.6244389846        8.1344576069        1.3710527601
  C        12.5182708445       -0.8868680818       -2.5902865378
  S         5.0583993061        6.6348344720       21.1656086995
  C         5.7798701354        9.4947388900       20.9984714854
  H        16.9375566510        4.3473740062        7.5390836675
  H        18.0285823183        4.3190874266        6.2043638724
  C        18.4415416908        5.9120996207        7.6637407684
  H         6.0082675771        8.8840580047        0.6490406722
  H         6.2226931742        8.1615884551        2.1995734268
  C         4.1470696374        8.5345965568        1.5866631317
  H        12.0317262615       -1.8615961657       -2.5486286005
  C        13.1085036936       -0.6475355149       -3.8510878496
  H         5.0059542777        9.0086637940       21.5938678362
  H         5.3508939326       10.4911830828       20.8637435046
  C         7.1105410849        9.6225907781       21.6871484868
  H        18.9476198943        5.3358655853        8.4966820250
  H        17.9721170561        6.8197480391        8.0738385610
  C        19.5667027383        6.2537336471        6.7187200002
  H         3.8803585872        9.3093933816        0.8507333151
  H         3.6155938183        7.6665821985        1.3506863289
  C         3.8285827803        8.9638441483        3.0324900517
  S        13.7459769658        0.8214013255       -4.3682979754
  C        13.1088702883       -1.7431645037       -4.9449149070
  H         7.8376217169        9.7095655010       20.9197464790
  H         7.2881071546        8.7829070433       22.3700392468
  H         7.2408232325       10.5322184459       22.2654143500
  H        19.1815819189        6.6510777059        5.8366969767
  H        20.0939004241        7.0934622081        7.1923218284
  H        20.3916165710        5.5152966575        6.5051152123
  H         4.3172915698        8.2750430652        3.7683710626
  H         4.2183308191        9.9384475179        3.2914659366
  H         2.7792590543        9.0600717387        3.2593432378
  C        14.0846414860        0.0473644064       -5.9609783435
  N        13.7541807670       -1.2828080292       -6.0018343088
  O        12.5828309962       -2.8734407105       -4.8627276463
  S        14.9284207417        0.6664294193       -7.3448158909
  C        13.9168881657       -2.1581255883       -7.1858241689
  H        14.0060292828       -3.2168307606       -7.0058763298
  H        14.8501885845       -1.9658752050       -7.7235380737
  C        12.7342810726       -2.0607165905       -8.1485857269
  H        12.6373563196       -1.0347004487       -8.4470902443
  H        11.8264296205       -2.5040917012       -7.6200817838
  H        12.8832568703       -2.7699823575       -9.0417443627
