352
 i =   130000, time =    65000.000, E =        99.7882461907
  H         9.8067894111        6.3399911137       29.9774725042
  C        10.7181264771        6.5124449579       30.6719560407
  H        10.9930862686        7.6115340524       30.6928982003
  C        11.9255111491        5.6602719482       30.1252771785
  C        10.3635330960        6.0429068324       32.0301604238
  C        11.5089034129        4.6508857136       28.9958236973
  H        12.6750310543        6.3515336202       29.8017738024
  H        12.4071749700        5.1554605491       30.8882743716
  H        10.1286121753        4.9891465088       32.0419932779
  H        11.1650261866        6.1860139667       32.7414574480
  H         9.5775884011        6.6506173903       32.4555437446
  C        11.6029260956        5.1556017788       27.5717415970
  H        10.5077959909        4.4234624015       29.2196052753
  H        12.0817626026        3.7125104400       29.1311139772
  C        10.4698710379        5.9050109443       26.9656002473
  H        12.5198225297        5.7576448942       27.4215928475
  H        11.6850942240        4.2550654313       26.9167341856
  C         9.4663247326        4.9455799834       26.2153857305
  H        10.7856477899        6.5202649298       26.1534388209
  H         9.9843804714        6.4845808313       27.7382781642
  C         8.2489492171        5.7756716086       25.6803012103
  H         9.9129853765        4.5093158512       25.3606215389
  H         9.0814187893        4.1320889824       26.8027773180
  C         7.0509978564        4.9554634482       25.0518094432
  H         7.8978637719        6.4044931597       26.5605461808
  H         8.5093617823        6.4846663525       24.9026327048
  C         6.8129639412        3.6291318276       25.7922105412
  C         7.5089483307        4.2539435926       23.8498247984
  C         5.8184825102        5.7704216413       25.0390459213
  C         7.1898371770        2.4954294830       25.0673353381
  C         6.3592870497        3.2422252990       27.0399280393
  C         7.5694704638        2.8693974807       23.8051947527
  C         8.1074819525        4.9160957412       22.7809541995
  H         5.9374622147        6.6467934782       24.4053490298
  H         5.6947523768        6.2287473911       25.9943274372
  C         4.4219744860        5.1589408723       24.7088910494
  S         7.0249493470        1.0086165994       25.9539923863
  C         6.3414684694        1.8954672938       27.3155453384
  H         6.0166046912        3.9637999143       27.7705319992
  C         8.0472241585        2.2792797225       22.6862535912
  H         8.2220906300        5.9956577507       22.8751161919
  C         8.4372042586        4.2944127970       21.5764098177
  H         4.3216657154        5.1352027246       23.6428460592
  H         4.3558625291        4.1230191789       25.0856817942
  C         3.2100988119        6.0511879362       25.1240600508
  C         5.9509045383        1.3042373690       28.6670836481
  C         8.5084450265        2.9553059878       21.5151982739
  H         8.2792018921        1.1756030655       22.7121575721
  C         8.9192939810        4.6510180726       20.3451168442
  H         2.3013773581        5.7003798940       24.5624666682
  H         3.3812945629        7.0663453948       24.7920560384
  C         2.8763524803        5.9928884726       26.6728180672
  C         6.0445221981       -0.0972916417       28.9625584204
  C         5.5903581560        2.1967154194       29.7544549242
  C         8.9528338657        2.2391011554       20.2230554634
  C         9.1804506067        3.5505669991       19.5569961412
  S         9.3900410525        6.1248454842       19.6566777284
  H         2.2624927583        6.8737581900       26.7097434777
  H         3.7237386204        6.3095908961       27.2123215884
  C         2.2937868754        4.7469864316       27.1918005322
  N         6.4558729130       -1.0779138674       28.0725880496
  C         5.8054318052       -0.5828510251       30.2511473998
  C         5.2438571636        1.7429334209       31.0165465041
  H         5.5491141026        3.2377047204       29.5239706448
  C         7.9131243050        1.3802973795       19.3924469004
  C        10.2480942620        1.4443418551       20.4078879458
  C         9.4856636959        3.9741527895       18.2444343048
  C         9.6895691029        5.3304651905       18.2027405798
  H         1.8539884800        4.1326405361       26.3811455876
  H         3.0356922221        4.0052549838       27.5931782655
  C         1.1734828708        4.9727612936       28.3049513253
  S         6.4789488834       -2.5187529438       28.8440446225
  N         5.9530974079       -1.9750954630       30.3208294716
  C         5.3077394647        0.2382099293       31.3313787713
  H         4.9552012220        2.4167897467       31.7610312489
  H         7.9497567848        0.3507023283       19.8107101898
  H         8.3299973585        1.3836348211       18.3392064399
  C         6.4764219009        1.9399538703       19.3721262543
  H        10.4623428935        0.9651651065       19.4908388741
  H        10.1658573190        0.8676231321       21.2902393336
  C        11.4738712187        2.3266136930       20.6886090251
  H         9.6683723511        3.2162584723       17.5767852988
  C         9.8986396873        6.0981459888       16.9539405892
  H         0.7051996157        3.9647985755       28.6564607999
  H         0.4810996616        5.6424915364       27.7812924976
  C         1.6860148024        5.8148731023       29.4631122907
  C         5.1665286066       -0.3588750350       32.6475112097
  H         6.6111380611        3.0297506007       19.2492671349
  H         5.9194647334        1.8307957527       20.3203748734
  C         5.7627123799        1.3561126227       18.2063079201
  H        11.1492056100        3.1016280121       21.3893664636
  H        11.7531108629        2.7667527037       19.7925637086
  C        12.5731415342        1.4942523674       21.3321203487
  C        10.0178416136        7.5209777696       16.8267728245
  C        10.1898647678        5.3724186199       15.6752296272
  H         2.0360303023        6.7589482590       28.9918377145
  H         0.8832433866        6.0569323275       30.1476039997
  C         2.8510769851        5.2071480882       30.2601896296
  H         5.3967985792       -1.3811445443       32.7866227883
  C         4.7574059042        0.1671791924       33.8526640407
  H         5.4066339376        0.2640228692       18.3047709566
  H         6.2441138732        1.5299103267       17.2891730924
  C         4.3863150589        2.0148799273       18.1077247518
  H        12.4120708049        0.9305022356       22.2665500015
  H        13.0512135815        0.7977711162       20.6551628102
  C        13.7328319810        2.4526601275       21.6943582303
  N         9.8462670394        8.4234461997       17.8980456858
  C        10.3593548632        8.1846862526       15.6650642899
  C        10.4213154546        6.0437541859       14.4976170571
  H        10.0375413003        4.3179684720       15.7548410852
  H         2.8676589388        4.1076755815       30.1928292546
  H         3.7502343865        5.5801081036       29.7908058912
  H         2.8986283673        5.4154150913       31.2775205540
  S         4.3989972527        1.8357404484       34.1968382513
  C         4.6905471807       -0.7034299289       35.0640774569
  H         4.2891296173        2.8120779395       18.8168651879
  H         4.1962124203        2.3609118582       17.0814081601
  C         3.2794146292        1.1109472707       18.5666477486
  H        13.3920666747        3.1854948725       22.4016246520
  H        14.0401448208        3.1169699974       20.9108343830
  C        15.0433670787        1.7653219740       22.0085888265
  S         9.7920679987        9.9610576901       17.2926282277
  N        10.1766673038        9.5751815369       15.7266151346
  C        10.6253163491        7.5230712056       14.4445475306
  H        10.6094438998        5.4566974847       13.5975589525
  C         4.2086550270        1.3457581689       35.8607291954
  N         4.2543376410        0.0363728275       36.1150604090
  O         4.9750372681       -1.9060350206       35.0469696759
  H         2.4580056119        1.6776416119       18.8333006800
  H         3.6436189391        0.5103143663       19.4956110936
  C         2.8031092493        0.0869756021       17.4879037727
  H        14.9285483800        1.1779234522       22.9407983293
  H        15.1704716770        0.9675912591       21.2867233492
  C        16.2439525097        2.6946185882       22.0086435362
  C        10.8247802923        8.2369624451       13.2333811434
  S         3.8179787714        2.3546234808       37.2120306423
  C         4.2090069992       -0.6169775178       37.4366907257
  H         2.3529327679        0.6694520027       16.6416950026
  H         3.7725011300       -0.3913765468       17.1487238387
  C         1.7127914752       -0.9360791811       18.0221968329
  H        16.2103723955        3.6713557314       22.5542813094
  H        16.4372828220        2.9879018168       20.9790818080
  C        17.4910243602        2.0709224065       22.7214014676
  H        10.5459116465        9.3190898496       13.2535504619
  C        11.3555458610        7.8845139137       11.9545536460
  H         3.5293654222       -0.1256181120       38.1316133288
  H         3.8286039818       -1.5844012337       37.2861876757
  C         5.6391505591       -0.8703423593       37.9892800997
  H         0.7315668531       -0.5561320785       17.7930827369
  H         1.7817615605       -0.9688269250       19.1433157443
  C         1.8623579765       -2.3027797612       17.4603577509
  H        17.6280837552        1.1233421913       22.1736395018
  H        18.3647403643        2.7432423080       22.5833754916
  C        17.2719286644        1.9588612569       24.2132531909
  S        12.0619797630        6.4126584646       11.5398510035
  C        11.5001405828        8.9588139479       11.0048435962
  H         6.1589544065       -1.6521437946       37.3941501646
  H         6.3036059807       -0.0319805346       38.0418040829
  H         5.5549585680       -1.2885467607       39.0066701582
  H         2.3660735040       -2.3601455084       16.4549726920
  H         0.9886210697       -2.9112070071       17.4520333636
  H         2.5849237807       -2.7617310550       18.0953946828
  H        17.1510341936        2.9225071474       24.6907923849
  H        18.1336934984        1.4829489954       24.6446887907
  H        16.5050917168        1.1976885849       24.4664596400
  C        12.4181273520        7.2183351399        9.9977604572
  N        12.1615340942        8.5247580158        9.9357416752
  O        11.2060819148       10.1197314770       11.1427370826
  S        13.1427523101        6.4194134173        8.5799920125
  C        12.3461279770        9.4019942909        8.7721729870
  H        12.5244171636       10.4779034365        9.0994750059
  H        13.2694771462        9.1659766385        8.2414370137
  C        11.0989798078        9.2523460266        7.8070216615
  H        11.3636210786        9.5361945137        6.7935303021
  H        10.7580001551        8.2158771804        7.7313863712
  H        10.2432423442        9.8410639662        8.1791204936
  H         4.6308427913        1.5001618208       12.0483913589
  C         4.1309026120        2.3936187191       12.3205909469
  H         4.8823823425        3.1800152021       12.3043092352
  C         3.0861431880        2.5113638718       11.2092416353
  C         3.6218302102        2.1496762511       13.7790482870
  C         3.7178137617        2.8905717129        9.8975372467
  H         2.2931367548        3.2693678160       11.3245621329
  H         2.5502926843        1.5728943280       11.2091765948
  H         4.4259873389        2.0406673469       14.4409727526
  H         2.9888434739        1.2893177073       13.9738688981
  H         2.9401232452        2.9475882816       14.2568877526
  C         4.4045522524        1.7106717556        9.2179995674
  H         2.8330804488        3.1682751095        9.2934672399
  H         4.3302238954        3.8314158664        9.9945240193
  C         5.2394281678        1.9967055644        8.0517999781
  H         3.5003926729        1.2203743056        8.8633287314
  H         4.8762651575        1.1075154839       10.0257449469
  C         6.5761272863        2.7437727698        8.3291787671
  H         4.7551304542        2.7003319176        7.3939125021
  H         5.3151172494        1.1750372608        7.3579451897
  C         7.7145493338        1.8214460733        8.8484860504
  H         6.7727490670        3.1487754300        7.2893133180
  H         6.4535689848        3.7005970462        8.9148407549
  C         9.0017092282        2.6761733151        9.2509756656
  H         8.0567238231        1.0871096493        8.0503505815
  H         7.2965734432        1.2228842021        9.6488320765
  C         8.6807351582        4.0051815773        9.9486716430
  C         9.4334627037        3.3765303905        8.0474930040
  C        10.2104752248        2.0751154541       10.0156782623
  C         9.0919491319        5.1077064914        9.2212716208
  C         8.0773096682        4.3633077325       11.1880400673
  C         9.5864485509        4.7253176375        8.0230463270
  C         9.8717665572        2.8065717552        6.8193477147
  H         9.9702850717        1.9770904437       11.0607588969
  H        10.3485794428        1.0533311439        9.6684790222
  C        11.5450710730        2.8595892963        9.9170979180
  S         8.6787005811        6.6285139293        9.9053728587
  C         8.0541127743        5.7442012634       11.2706512363
  H         7.8803446780        3.5397818410       11.8950958547
  C        10.0354404469        5.3625192240        6.9000650222
  H         9.9152019551        1.6806792945        6.6480546114
  C        10.1334020292        3.4966068185        5.6493574527
  H        11.4393255629        3.8941318081       10.2128624385
  H        11.9841016274        2.7527243976        8.8693574202
  C        12.5532107513        2.2641316566       10.9091166894
  C         7.4742442522        6.4509823652       12.4344909896
  C        10.2358450799        4.8065524290        5.6122603246
  H        10.0474837991        6.4175501115        6.9570488515
  C        10.4266069569        3.1474371902        4.3648802811
  H        13.6194790690        2.6689803265       10.8791142650
  H        12.5049863359        1.2138699183       10.8326866197
  C        12.2043945352        2.7217984073       12.3407639111
  C         7.4694228894        7.8451849923       12.7436183518
  C         7.0091301558        5.5994667726       13.6167358117
  C        10.5860245254        5.5754400815        4.3417974902
  C        10.7177679130        4.2761512888        3.5922637045
  S        10.5747919159        1.5314311969        3.6739314751
  H        13.0160767865        3.4098766308       12.6889613202
  H        11.2458631828        3.3228003889       12.2096893601
  C        11.9320482531        1.7213372295       13.4631297580
  N         7.9256413199        8.7754539093       11.7948796062
  C         7.2105597817        8.3899164306       14.0049853489
  C         6.7219344871        6.1530531528       14.8656990010
  H         6.8012331901        4.5501074304       13.4721646344
  C        11.9487293519        6.3493346986        4.4254792473
  C         9.3716957741        6.3399314506        3.8468208323
  C        11.1453184605        3.7795932900        2.3661167300
  C        11.0946600086        2.3819840680        2.2473986756
  H        12.1049115019        0.6692334361       13.0227568405
  H        10.8706079240        1.8388190672       13.7729846595
  C        12.8535893743        1.9368311477       14.6477349286
  S         7.9661352572       10.2877337955       12.5215232282
  N         7.4825418613        9.7164380349       13.9992152685
  C         6.9771654372        7.5803065430       15.1157741092
  H         6.2832370760        5.4870892506       15.5482483324
  H        11.8205865732        7.2856781785        4.9791534517
  H        12.1283176889        6.7119151419        3.4541986562
  C        13.1841781434        5.4508373476        4.8138441271
  H         8.7971624555        6.6645671946        4.7088992740
  H         9.6589665968        7.2133880708        3.2259248246
  C         8.2904988132        5.5295746625        3.1738634678
  H        11.5016442810        4.4874101698        1.6063190088
  C        11.4307543721        1.7110221420        0.9510612397
  H        13.8898458999        1.7677919002       14.3252679093
  H        12.7112502965        2.9461275163       15.0483671290
  C        12.5867940691        1.0145761518       15.8228966789
  C         6.6766699926        8.2981639638       16.3856892972
  H        12.9557448502        4.8620074742        5.6661432087
  H        13.4342909949        4.7915229486        3.9843948964
  C        14.4789419842        6.2005700158        4.9684909621
  H         7.8295243149        4.7612094602        3.8442449293
  H         8.6958297846        5.1246517754        2.2727829230
  C         7.1438865645        6.3487545549        2.6278907001
  C        11.6216319584        0.3258184995        0.8135407887
  C        11.6979472779        2.5153982502       -0.3207258335
  H        13.3504774323        0.2528529844       15.8570118807
  H        11.6537853592        0.4647834129       15.6891744064
  C        12.6377358812        1.8128681796       17.2035106810
  H         6.9532531396        9.3474221322       16.3083747818
  C         6.3697206875        7.9062173445       17.6646281082
  H        14.1649158873        7.1234611357        5.4404242929
  H        14.9834530491        6.4138099058        4.0903302309
  C        15.4380966896        5.4772211955        5.8946205718
  H         6.8035983030        7.1392190462        3.3247955079
  H         7.5088125137        6.9090467816        1.7844878657
  C         5.9663113644        5.4271168850        2.2052406798
  N        11.2362979582       -0.6302635769        1.7615090515
  C        11.9227886751       -0.3146352100       -0.3881103272
  C        12.0278439457        1.8856323167       -1.5325899262
  H        11.4762197390        3.5335106748       -0.4493661411
  H        13.5780646521        2.3631409569       17.4653852882
  H        12.6001993530        1.2138111531       18.1310339173
  H        11.8147388832        2.4953721767       17.2179163604
  S         6.0165004498        6.2868726374       18.2714375859
  C         6.4927875186        8.8642647513       18.7572755458
  H        15.0502725557        5.4546703561        6.9326344283
  H        15.5182670839        4.4695224307        5.4966122326
  C        16.8721747100        5.9708787961        5.8552320277
  H         5.5322664538        4.8047126567        3.0365524259
  H         6.4266837812        4.7223338330        1.4807362867
  C         4.8812834885        6.2442098844        1.4499258383
  S        11.4246366238       -2.1590146975        1.0944099653
  N        11.9167161725       -1.6770744227       -0.3581905901
  C        12.2326938703        0.4020587484       -1.5239304745
  H        12.1243383228        2.5052809174       -2.3634068461
  C         5.9005734553        6.9711694319       19.8678719307
  N         6.1325642825        8.3125520128       19.9184054697
  O         6.7362653532       10.0825960791       18.5304463554
  H        17.2633906610        6.0292790111        4.8589340561
  H        16.8404254171        7.0263310096        6.1314081958
  C        17.7917954581        5.2253645896        6.8369941920
  H         5.2991789469        6.4942988347        0.5136055592
  H         4.0437626241        5.5666530933        1.1897388024
  C         4.3498338560        7.5132952189        2.1280628345
  C        12.5647117858       -0.3615693741       -2.6883134457
  S         5.4195864018        6.0789034881       21.2915294339
  C         6.1300552023        9.0322794395       21.2178006816
  H        17.3077849898        5.2863973057        7.8887737496
  H        17.8945662444        4.2264899870        6.4334550513
  C        19.1561357036        5.9068000568        7.0259081757
  H         5.1708216426        8.2214716547        2.1219715087
  H         4.2177892527        7.4376838896        3.1962581160
  C         3.1190843849        8.1415986876        1.4674506387
  H        12.2793310441       -1.3944107363       -2.6679681989
  C        13.0544133884       -0.0621126527       -3.9255906602
  H         5.3116814543        8.7546981142       21.9230516627
  H         5.9112165394       10.0460121278       20.9823477951
  C         7.5635911541        8.9895142330       21.8329741716
  H        19.6367014237        5.7074763770        7.9740392369
  H        19.0728643569        6.9813871858        7.0201948237
  C        20.0191665175        5.6979003288        5.7912309381
  H         3.0217154125        7.8481429031        0.4609912354
  H         2.1478707589        7.8283323867        1.9525363566
  C         3.0535046320        9.6907442947        1.3330775443
  S        13.7060878185        1.3558050727       -4.3589188574
  C        13.1554983050       -1.1966283683       -4.8653766137
  H         7.5658652318        8.7812170971       22.8738986778
  H         8.2532222779        9.8249370252       21.5433628562
  H         8.0225733643        8.1657324347       21.3169068085
  H        20.1472160128        4.6695136509        5.7250511664
  H        19.5001985262        6.0409091130        4.8960495952
  H        20.9993533386        6.2047044043        5.7763203631
  H         2.9828888366       10.1452161412        2.2771707213
  H         3.9656718769       10.0626282888        0.8311102636
  H         2.1941313491       10.0449756227        0.7159659253
  C        14.0756592312        0.6391590188       -5.8906867002
  N        13.8354761956       -0.7094434689       -5.9328176986
  O        12.6996215327       -2.3015786878       -4.7070509725
  S        14.7810314507        1.4931199723       -7.2966629496
  C        13.9720138973       -1.5155604350       -7.1191747015
  H        13.8938519295       -2.4858067449       -6.8224709074
  H        14.9250090516       -1.3890099479       -7.6045741230
  C        12.8994249495       -1.0937334162       -8.1444275287
  H        12.0050996706       -0.6855022527       -7.6536107169
  H        12.3940537198       -1.9273017842       -8.6195868657
  H        13.0890717325       -0.2972252839       -8.9098153191
