352
 i =    54000, time =    27000.000, E =        99.8471925994
  H         9.5500370758        4.9663075982       31.6708908046
  C        10.3432026636        5.6698797887       31.8795115961
  H         9.8938695930        6.5141278825       32.4436549286
  C        10.8626510028        6.3746297519       30.6094173507
  C        11.4537200651        4.9201902894       32.7369692993
  C        11.3586120180        5.2358237280       29.6552779491
  H        10.1496204351        6.9890003585       30.1149161889
  H        11.7624458841        6.9191812442       30.9536926201
  H        12.4158922427        4.5689934259       32.3049109449
  H        11.8999697621        5.7330894385       33.3146388391
  H        11.0446980575        4.1347590756       33.3737851702
  C        10.2245248166        4.8920758821       28.6574643492
  H        11.7209585963        4.3739236584       30.0272481638
  H        12.1986127743        5.7241326658       29.1116033765
  C        10.6563709054        4.9312748883       27.2038986387
  H         9.7125312860        3.9390472660       28.9756944280
  H         9.4169200553        5.7000044745       28.7145503332
  C         9.6007906490        4.4117710807       26.2760764206
  H        11.5426258597        4.2948839158       27.0072031118
  H        10.9049966133        5.9398883069       26.9621334403
  C         8.4118713591        5.3645354535       25.9597665233
  H         9.9075514809        4.0849520634       25.2563768019
  H         9.2773881523        3.5243505028       26.7594874486
  C         7.2059891794        4.7110369828       25.2498213142
  H         8.0297024864        5.8394601316       26.8525972697
  H         8.7743094662        6.1495863473       25.2775675929
  C         6.7410137656        3.4058414853       25.9533790117
  C         7.5872002455        3.9449973655       24.0046502550
  C         6.0968850010        5.7960154545       25.0156982259
  C         6.8806986033        2.2864189366       25.1270288598
  C         6.3497987204        3.0454374265       27.2504676331
  C         7.4690459501        2.6279323636       23.9610637673
  C         8.0935828925        4.5057693938       22.8404291531
  H         6.3324067833        6.3934429236       24.1291106655
  H         5.9155348183        6.4307297806       25.8421278262
  C         4.6337290465        5.2037407254       24.7514374256
  S         6.3637618818        0.8284434386       25.8650306734
  C         6.0691801745        1.6732960316       27.3017230429
  H         6.4620577350        3.7701527494       27.9991203732
  C         7.8520984902        1.9489727425       22.8207562197
  H         8.1477209587        5.5800200719       22.7916874344
  C         8.5723271789        3.8274870242       21.7212231373
  H         4.5031388280        4.8027251654       23.7843912748
  H         4.3054247702        4.3474390721       25.3995169385
  C         3.5896897476        6.2685983756       24.8702574532
  C         5.7672778602        1.0058882145       28.5928915875
  C         8.3810875188        2.4822946635       21.6241763860
  H         7.7068635199        0.8436990376       22.8452645613
  C         8.9828586248        4.3071392640       20.4898383368
  H         2.7733816553        5.9271074324       24.3092984920
  H         3.7935904767        7.2332907383       24.4078062297
  C         3.0812382140        6.2434237367       26.3472175743
  C         5.8892673468       -0.3731877145       28.9511490944
  C         5.3466277332        1.9105826032       29.6606230757
  C         8.8913896259        1.8547002842       20.3088285122
  C         9.2519602527        3.2558167785       19.6532721959
  S         9.1840413214        5.8714396608       19.7757398524
  H         2.2500215379        7.0505995220       26.3639725574
  H         3.8520085712        6.6852098070       27.0094507106
  C         2.2741496162        5.0695448698       26.8231695783
  N         6.3064103467       -1.2902514482       28.0275741132
  C         5.5769059377       -0.8736802615       30.1888386024
  C         5.1032775456        1.4262445286       30.9055540271
  H         5.1428187639        2.9724884808       29.4319677080
  C         7.7870469209        1.2041509596       19.5131161401
  C        10.0900553156        0.8421077370       20.6581820807
  C         9.6281215315        3.7579577974       18.4046381153
  C         9.6194382535        5.1094637310       18.3186553230
  H         1.5677827611        4.7995218761       26.0412484307
  H         2.8088213383        4.1531631221       26.9805297449
  C         1.5996796191        5.3405144052       28.1296681727
  S         6.1734910021       -2.7446152637       28.7489299247
  N         5.6546906111       -2.2702302306       30.2454290243
  C         5.2325673880       -0.0250194956       31.2438351721
  H         4.7044671547        2.0453951718       31.6565126349
  H         7.8633401796        0.1421197447       19.6752250347
  H         7.9987628932        1.3525495790       18.4556131881
  C         6.4161826041        1.9562650731       19.7230533518
  H        10.3705686737        0.1097063622       19.9237020881
  H         9.8135633373        0.2358084916       21.5154636471
  C        11.3241598268        1.5315333613       20.9422352426
  H         9.7906121390        3.1440472226       17.5198584884
  C         9.9277074797        5.9412964198       17.0696404631
  H         0.8269069961        4.5696117072       28.2496423180
  H         1.1014349116        6.3220325016       28.1578178836
  C         2.5637512520        5.1414990079       29.3323275836
  C         4.8865764775       -0.7300111662       32.4429251143
  H         6.4290850816        3.0066759686       20.0287460795
  H         5.9260882276        1.4330275351       20.5018193956
  C         5.6169124212        1.8869043384       18.4081986970
  H        11.2670023872        2.2315833286       21.7653768115
  H        11.6654860666        2.0109172332       20.0444583250
  C        12.5672367929        0.6784383865       21.1241618296
  C        10.0436270884        7.3552837832       17.0264491002
  C        10.0875534278        5.2299008197       15.7857487684
  H         3.1477469568        4.2380011730       29.1505608631
  H         3.3167271878        5.9838652929       29.3095752165
  C         2.0251826553        5.1897555474       30.7291440370
  H         4.8639076727       -1.8160147473       32.5207726427
  C         4.7417845736       -0.2772710028       33.7458468153
  H         5.6624455124        0.9272722076       18.0305896974
  H         6.1715216508        2.5705662491       17.7393864217
  C         4.1478789328        2.4114006824       18.5024540441
  H        12.2724448774       -0.0214635147       21.8543261036
  H        12.8852675542        0.1859131818       20.2041399378
  C        13.6218729390        1.5726698656       21.6364270013
  N         9.8050834924        8.2034427064       18.0729449252
  C        10.1835583890        8.0591129654       15.7930949522
  C        10.3342707726        5.9269678830       14.6224292460
  H         9.8602885554        4.2106776346       15.6392366192
  H         2.7801817002        5.0474549366       31.5323108526
  H         1.5823520615        6.1248353165       30.8963607014
  H         1.2154014055        4.4076827881       30.8862648114
  S         4.6129062856        1.3855929478       34.2619433854
  C         4.5389066802       -1.2238616877       34.8704273576
  H         4.2598127948        3.0814371553       19.3187973958
  H         3.8652452722        2.8882440120       17.5928019833
  C         3.1841552684        1.3266700768       18.8797940916
  H        13.4644585399        1.9534244180       22.6243503248
  H        13.7867769153        2.4588969478       20.9908878627
  C        14.9145571467        0.8096346447       21.8297313175
  S         9.9223460214        9.7523312995       17.5152696363
  N        10.0795159034        9.4196160560       15.9178003754
  C        10.4561923166        7.3837376051       14.5282270043
  H        10.5048741930        5.3476501223       13.7330894231
  C         4.4615585554        0.7425357088       35.9087584206
  N         4.3353130304       -0.6176241152       35.9986122209
  O         4.6076564549       -2.5005723465       34.7607451766
  H         2.2423631223        1.7419993864       19.2839769097
  H         3.6963757346        0.7579411397       19.7264190735
  C         2.8096788704        0.4192159519       17.6917172071
  H        14.7878187100        0.0950030811       22.6893581570
  H        15.1359566296        0.1944187617       20.9727113451
  C        16.0948704105        1.7654696666       22.0922933449
  C        10.6797233439        8.1629495473       13.3543519663
  S         4.2021925664        1.7570513906       37.3344985448
  C         4.1965265066       -1.3229235669       37.2791801440
  H         2.4266911155        1.0543858896       16.9376433954
  H         3.6888632210       -0.1524310521       17.2556919806
  C         1.9544305412       -0.7526558974       18.1626607791
  H        15.8115793625        2.6399506141       22.6788220241
  H        16.5466615608        2.1362201802       21.2032478726
  C        17.2448025957        1.1898911072       22.9738904423
  H        10.6258010663        9.1916304321       13.5062055684
  C        11.1725527584        7.8126659019       12.0627167850
  H         3.4687148685       -0.8831286040       37.9148486603
  H         3.8640173379       -2.3364243400       37.0755048208
  C         5.5019807487       -1.4231244034       38.1148122197
  H         0.9572594293       -0.5126781172       18.1163653176
  H         2.3235846663       -1.0004541951       19.1537943498
  C         2.1623863887       -2.0286338333       17.2808064638
  H        17.7557585203        0.3250368978       22.6591239845
  H        17.9584691811        2.0009149716       22.8682776101
  C        16.9250019690        1.1124624386       24.4350742748
  S        11.4919079503        6.2160207942       11.5472601990
  C        11.3603725143        8.9214272350       11.0710427283
  H         5.8038546419       -2.3738312057       38.5129427453
  H         6.3349201374       -1.0836695165       37.4844675711
  H         5.4015140981       -0.8001561077       38.9253260791
  H         1.6584167963       -2.8361796091       17.7469777576
  H         3.1440242725       -2.2951385180       17.3053946051
  H         1.8015820761       -2.0066340574       16.3166101511
  H        17.6852619931        0.6952216412       25.0680147395
  H        16.2106341397        0.3126059747       24.5384206798
  H        16.6219595151        2.0510025421       24.8058356291
  C        11.8394715922        7.0553032971       10.0438698198
  N        11.8525628657        8.3930040177        9.9842535075
  O        11.0956510975       10.1064811874       11.2157834857
  S        12.5297257946        6.2453832739        8.6572579465
  C        11.8403028745        9.2017237631        8.7775783296
  H        12.0275736048       10.2443610539        8.9221859470
  H        12.5595932867        8.8041349178        8.0699547764
  C        10.4795605022        9.2222401886        8.0504237723
  H        10.0359122090        8.2549696301        7.9140636752
  H         9.7151849662        9.8931949265        8.4448707903
  H        10.8361418831        9.4581251465        7.0716955513
  H         3.8674634697        1.4341720274       12.5696155854
  C         3.4119139949        2.4263125263       12.5666583711
  H         4.2989925105        3.1150573269       12.6364168991
  C         2.7179255959        2.7562689057       11.2548404544
  C         2.4799452761        2.7074925403       13.8603955835
  C         3.6008305300        2.7349167511       10.0360027230
  H         2.4295220169        3.7668950483       11.2251828557
  H         1.9102905577        2.0430297362       11.0824697567
  H         2.4540583881        3.7683070479       14.1126129542
  H         2.8499189141        2.1827645875       14.7901934665
  H         1.4375574026        2.3150104613       13.6468090482
  C         4.2839481193        1.3947402654        9.6284165265
  H         2.9545620248        3.1635560499        9.1786875376
  H         4.3858210826        3.4403760432       10.3003968003
  C         4.8266873911        1.3996920176        8.2228788123
  H         3.5019523274        0.6690378801        9.6427723751
  H         4.9147713919        1.0829848091       10.4101178479
  C         6.0729885788        2.2391311521        8.2351894062
  H         4.1706870829        1.8357752987        7.4764797814
  H         5.0246157656        0.3926747431        7.9789035028
  C         7.2952623954        1.4981358920        8.7551687182
  H         6.4803778150        2.6012568254        7.2871178557
  H         5.8500503035        3.1641142711        8.7927015645
  C         8.4844865165        2.3255992566        9.1870312641
  H         7.5882902901        0.7141203124        8.0427056491
  H         6.9869091893        0.9472395208        9.6270484665
  C         8.2199432668        3.7142882238        9.8634751392
  C         9.0230307192        3.0400144734        8.0132277201
  C         9.5403689235        1.5069562699        9.9977843691
  C         8.4936859124        4.8473645036        9.0833741970
  C         7.8438379119        4.1568360801       11.1540654016
  C         9.0144957766        4.4192707800        7.9304811876
  C         9.6031695218        2.4858732512        6.8543444440
  H         9.1105924729        1.0431163167       10.8926906051
  H         9.8237244526        0.6071807810        9.4165317437
  C        10.8588676628        2.2817784060       10.2102044146
  S         8.1964944248        6.3560223149        9.8488081793
  C         7.7972087120        5.5355054560       11.3240735428
  H         7.6865141367        3.4800217145       11.9577987228
  C         9.5547787315        4.9987389934        6.8225846124
  H         9.5260020105        1.4394379303        6.8174470460
  C        10.0668238734        3.0751529773        5.7043416502
  H        10.7769780740        3.3528444428       10.5228888806
  H        11.4786691926        2.3139836419        9.2977825399
  C        11.8191228825        1.8931211383       11.3251883578
  C         7.4137315065        6.1883386661       12.6438125022
  C        10.1140889268        4.4396068001        5.6477365708
  H         9.6184375958        6.0287548195        6.7616149470
  C        10.5583131667        2.6830479537        4.5495892368
  H        12.6547964409        2.6139565661       11.2008231364
  H        12.1795373800        0.9422193306       11.2230327913
  C        11.3027808845        1.9911184939       12.7443261567
  C         7.5318168081        7.5674121211       12.8825654355
  C         6.9911426811        5.2954835467       13.8288995870
  C        10.6120111584        5.1454317097        4.4974105935
  C        10.8870521074        3.7870634956        3.7972848000
  S        10.9210287463        1.1826472296        3.8053793194
  H        11.3666103247        3.0507543360       13.0115867409
  H        10.2437398228        1.7559016841       12.7298017546
  C        12.1351051896        1.1915418848       13.6909878517
  N         7.8691741790        8.5401930129       11.9200698034
  C         7.3228838263        8.1190950524       14.1465916103
  C         6.8188744885        5.9131104107       15.0960518410
  H         6.6676244778        4.3366050214       13.6536419064
  C        11.8098405328        6.0165414817        4.7922937252
  C         9.4892571472        5.9235733025        3.7766035472
  C        11.3666016176        3.3737720656        2.5761365149
  C        11.5445874985        2.0163871766        2.4587943096
  H        13.1359904006        1.2130086941       13.4498281384
  H        11.8921930008        0.1132001945       13.6069911691
  C        11.9710198788        1.6866354216       15.1320393561
  S         7.9628913774        9.9972474769       12.6092480683
  N         7.6600735246        9.4846276074       14.1099296285
  C         7.0004930326        7.3645120262       15.2881286661
  H         6.5498216010        5.2629306778       15.9171668789
  H        11.5309015169        6.6188670330        5.7245797323
  H        12.0834045512        6.6608599776        3.9116558122
  C        13.0774779198        5.2524111390        5.0761793647
  H         9.1485855137        6.7521541595        4.3555848838
  H        10.0116330275        6.2129631788        2.8515515700
  C         8.2870250089        5.1747120627        3.2129378009
  H        11.5927739532        4.0626666602        1.7901862145
  C        11.9311800962        1.3114937645        1.1754580443
  H        11.6762825500        2.6938601601       15.2852388519
  H        11.1165960952        1.1307757966       15.5913479751
  C        13.1966851588        1.4850500502       15.9982262335
  C         6.7887026467        8.0869037397       16.5294225143
  H        12.9169693911        4.7111400553        6.0393439916
  H        13.3492325586        4.5541135354        4.2791028498
  C        14.2606175049        6.2337913342        5.3305430856
  H         7.7899157824        4.6532431876        4.0539582873
  H         8.6544445316        4.3862398454        2.5484184631
  C         7.2754146973        5.9950597193        2.5197733285
  C        11.9199796299       -0.1044706440        1.0198901872
  C        12.2254816619        2.1283804836        0.0139988913
  H        14.0516235956        2.1052853723       15.6352768072
  H        13.5196586491        0.4277268077       15.8394668142
  C        12.8482533029        1.8414100771       17.4826599899
  H         6.5811536898        9.0973362974       16.4886894651
  C         6.3911494663        7.6690738785       17.8120938167
  H        14.2233839149        6.6610537836        6.3209228671
  H        14.2075816197        7.0308048922        4.6217151537
  C        15.6310200117        5.6257298738        5.3007801442
  H         7.0267951669        6.9106687427        3.1095649814
  H         7.7315095330        6.2731568512        1.5071491874
  C         6.0734961178        5.1301105363        2.1998174339
  N        11.5686944452       -1.0515364275        1.9647075880
  C        12.1608066247       -0.7461297762       -0.1849308589
  C        12.5712293851        1.4446990579       -1.2041932113
  H        12.2411453488        3.2024295497        0.0872236513
  H        12.7664877321        2.9242102405       17.5771421227
  H        13.6766535103        1.4114579764       18.0645045999
  H        11.9217801154        1.4166696820       17.9243195815
  S         5.9260961563        6.0466018654       18.2238233377
  C         6.2437709450        8.6303128528       18.9127390015
  H        15.6619915440        4.6129044424        4.9749816522
  H        16.3327390148        6.2456185984        4.7163635680
  C        16.1894751836        5.5462960667        6.7457144205
  H         5.4680535422        5.0186135294        3.1070566399
  H         6.4802884314        4.1484047238        1.8405738045
  C         5.1441071820        5.6730226706        1.2039023664
  S        11.5294148017       -2.5414221898        1.2981910832
  N        11.9937557649       -2.1368451888       -0.1737367370
  C        12.5636634899       -0.0511687622       -1.3350497841
  H        12.7515420982        1.9500038110       -2.1064758626
  C         5.7296194274        6.6161548500       19.8936861275
  N         5.9433378985        7.9489100253       20.0568595516
  O         6.3736318858        9.8175261335       18.8365157583
  H        16.3545111199        6.5234744907        7.1389647278
  H        15.5060636982        4.9947380552        7.3801257174
  C        17.5487404947        4.7901194599        6.8889042385
  H         5.5237349776        5.8939974626        0.1784605631
  H         4.3669568397        4.9018748946        1.0514741086
  C         4.4527647580        6.8964270154        1.7363404904
  C        12.7275462985       -0.6341369712       -2.6501924036
  S         5.3069654724        5.6430222947       21.2304503461
  C         5.8682701754        8.5152304173       21.4189516758
  H        17.5988095297        4.2793339815        7.8706939796
  H        17.5510583858        4.0005072923        6.1626870232
  C        18.7735910368        5.6705550566        6.6756947791
  H         4.7491865338        7.0483027474        2.8089695158
  H         3.4409978817        6.5601720039        1.8794162330
  C         4.5314240355        8.1634962116        0.8450640272
  H        12.6747612760       -1.6914812125       -2.5798343777
  C        13.2985899321       -0.3247646836       -3.9053912274
  H         5.2350597529        7.9750273052       22.1150688100
  H         5.6350084361        9.5997796092       21.5246701066
  C         7.2861598837        8.7074522167       21.9674214588
  H        19.2501856350        5.7948153438        7.6112185576
  H        18.4278930948        6.6826694549        6.3313852945
  C        19.7629901950        5.0994431823        5.6238706748
  H         5.2955990500        7.9575898716        0.1133992056
  H         3.5596350741        8.3722871382        0.3906916491
  C         4.9234385268        9.5375710247        1.5401416386
  S        13.9580926449        1.2271867892       -4.3046982186
  C        13.4210311692       -1.3122457964       -4.9988958566
  H         8.0252004247        8.4317764467       21.2918874210
  H         7.3933285389        8.0569809507       22.8572682017
  H         7.5897572703        9.6687714947       22.3466814659
  H        19.6077914905        5.5119877065        4.6042871732
  H        20.7675522653        5.2502285534        5.9487908511
  H        19.6750719990        4.0246805917        5.4131829365
  H         6.0119215161        9.6677860291        1.4714112126
  H         4.4275820788       10.3337857807        0.9976979597
  H         4.6318295300        9.6485785466        2.5675981595
  C        14.4094290746        0.5085336166       -5.8791149991
  N        14.1391314548       -0.7874320635       -5.9984188868
  O        13.0090375484       -2.4475519687       -4.9505637099
  S        15.1501626956        1.3574857165       -7.2151210817
  C        14.1748673214       -1.5144665888       -7.2686892657
  H        14.3208133588       -2.5891647735       -7.1268310672
  H        15.0160025185       -1.1693027051       -7.8863528872
  C        12.8876442058       -1.3193456738       -8.1588972254
  H        13.0124023948       -0.5796884621       -8.9291459790
  H        12.0324431648       -1.1938915076       -7.4419445978
  H        12.6443844127       -2.2651465941       -8.7735175952
