352
 i =    90100, time =    45050.000, E =        99.9431736662
  H        12.1340506110        6.9545120742       32.8464742302
  C        11.8665097105        5.8756720405       32.7618193908
  H        12.8085354551        5.3228778072       32.7196447272
  C        11.0415257844        5.6583186557       31.4917818008
  C        11.0426768067        5.4781284611       34.0120741782
  C        11.7124358104        5.9282888949       30.1669797619
  H        10.5615174659        4.6789798501       31.4437225181
  H        10.1812723654        6.3137637036       31.6527410337
  H        11.5779898559        5.8168140622       34.8978885039
  H        10.0554761282        5.9282581406       34.0357849666
  H        10.7920595378        4.4089537298       34.0561985511
  C        10.5947060090        6.0826246663       29.0799109560
  H        12.5157911308        5.2683265474       29.8183353254
  H        12.1663585590        6.9155417730       30.2856388406
  C        11.1521619161        5.7541404728       27.6908213281
  H         9.7316574006        5.4363000889       29.2391675458
  H        10.3065042724        7.0990629304       29.2933290670
  C        10.1035878832        5.2664332505       26.6846282473
  H        11.9093203984        5.0026681110       27.8246878093
  H        11.6013717448        6.7082232958       27.3141661872
  C         8.7970336499        6.0529273987       26.6042923732
  H        10.6924147211        5.1974445692       25.7916321963
  H         9.8465538712        4.2175328122       26.9774346355
  C         7.6914979367        5.3780568905       25.8109664606
  H         8.4247027787        6.3694110983       27.5687489864
  H         9.1458304429        6.9092439764       26.0550359471
  C         7.3195941719        4.0153424796       26.4559873394
  C         8.1475213581        4.6934625244       24.5357646379
  C         6.5533592404        6.3302676316       25.5604432753
  C         7.4620271303        2.9477430734       25.6277880156
  C         6.8313659125        3.6366608642       27.6846099551
  C         7.9775519023        3.3276963293       24.4477377642
  C         8.5529946731        5.2733588564       23.3790007869
  H         6.7638209838        7.1108128332       24.7771428673
  H         6.2994484600        6.9098266253       26.3845079293
  C         5.2406383735        5.6064025580       25.2100270239
  S         7.0888958932        1.4977079901       26.3288941589
  C         6.5709574530        2.2602585013       27.8093156293
  H         6.5406648048        4.5000812377       28.3121105628
  C         8.3536044686        2.6612678035       23.3397113737
  H         8.8345042947        6.3059776300       23.3536504177
  C         8.8442821539        4.5737239939       22.2247447083
  H         5.5427080651        4.9309967012       24.4242523474
  H         4.9044166069        5.0771195456       26.1116973041
  C         4.0876077520        6.4935330105       24.7718607347
  C         5.9578450831        1.5834165292       28.9415008264
  C         8.7920589325        3.2288696937       22.1247418300
  H         8.1134566939        1.6103862790       23.3862904292
  C         9.2580747868        4.9243491200       20.9714323716
  H         3.4961883688        5.9986656919       23.9992189207
  H         4.4488757446        7.5015616929       24.4598734965
  C         3.0751120048        6.8393067923       25.9218058602
  C         5.8240749029        0.1085320154       29.1622262306
  C         5.5355298360        2.3991815666       30.0851642373
  C         9.1422599990        2.5831035698       20.8479520179
  C         9.3796047493        3.9035766740       20.1156362896
  S         9.5163526789        6.4424061936       20.2348238591
  H         2.3480171210        7.5125847890       25.5777320529
  H         3.6440705161        7.2578596816       26.7566407405
  C         2.2205951256        5.6327345037       26.4866521164
  N         6.2053010072       -0.8918912293       28.2312007097
  C         5.3424580085       -0.3902474885       30.3541887479
  C         5.3657964839        1.8713675186       31.3506872295
  H         5.5787612678        3.4659388895       29.9402555047
  C         7.9321138388        1.9013521275       20.2275277178
  C        10.4795979264        1.7443206679       20.9371699023
  C         9.6727048688        4.2583048809       18.8045771527
  C         9.7556561924        5.6551567600       18.7367104289
  H         1.3430755494        5.5851152736       25.8765535392
  H         2.6322294050        4.6209907077       26.2999147714
  C         1.7433436216        5.7481162124       27.9434781983
  S         5.9346958708       -2.3373983447       28.9530858521
  N         5.3001634196       -1.7551852970       30.3550643706
  C         5.2213121528        0.4066295319       31.5470284256
  H         5.2764876117        2.6104571207       32.1666650012
  H         7.5530807544        0.9985141333       20.8068637176
  H         8.3790133988        1.4865217168       19.3249967051
  C         6.6291585709        2.6997667091       20.0300688425
  H        10.6497895371        1.1249555585       20.0523368824
  H        10.4013693890        0.9757475867       21.7333842402
  C        11.7140836150        2.5999017202       21.2252573860
  H         9.8436654255        3.5521033051       17.9860743605
  C         9.9812915141        6.4144359079       17.4802539161
  H         1.0333868807        5.0085801731       28.3050922368
  H         1.1327620149        6.6715708061       28.1526058326
  C         2.8620586207        5.7551726015       28.8850553724
  C         4.8765336926       -0.1961220870       32.7952175160
  H         6.8938478213        3.6441235149       19.4843095028
  H         6.1384608784        3.0200640419       20.9343193556
  C         5.7236739925        1.8906102761       19.0421549628
  H        11.4866286129        3.1513032799       22.1308911530
  H        11.9283730141        3.2564185678       20.3660449842
  C        12.9447398774        1.8369337923       21.6236281841
  C        10.0564517073        7.8460757496       17.2677258648
  C        10.1874279932        5.6117293605       16.2512453590
  H         3.4148039008        4.7902650307       28.7712172036
  H         3.5005662236        6.6258519024       28.6973002251
  C         2.3268991062        5.9183045546       30.2804243184
  H         5.1824750485       -1.2786696058       32.8486172305
  C         4.6224893636        0.2796935941       34.0573471497
  H         6.1528243045        0.8867757019       18.8592011310
  H         5.7113273084        2.5197484339       18.1747359402
  C         4.3600250226        1.7335816311       19.5725633236
  H        12.6349886242        1.1486140833       22.3356067067
  H        13.3578158214        1.3850900557       20.7347496068
  C        13.9478623387        2.7627002723       22.2175411543
  N         9.7311967662        8.8198762507       18.2488079736
  C        10.3110800807        8.3769373103       16.0118048146
  C        10.5379049617        6.1490324456       15.0238266912
  H        10.1180186716        4.5121875714       16.1911649976
  H         1.9251332891        6.8969019348       30.3213513897
  H         1.5708299284        5.1862614066       30.5100594252
  H         3.1357168267        5.7833833092       31.0508399809
  S         4.2198123121        1.8944276923       34.4566326495
  C         4.4500180078       -0.7118144419       35.1976297876
  H         4.3751223630        1.0397086046       20.4210037446
  H         4.0085554522        2.7065059619       19.9821749058
  C         3.2882734372        1.3891215393       18.4856488066
  H        13.4995209029        3.4163525395       22.9958233070
  H        14.3011503511        3.5722067824       21.5248328056
  C        14.9930893008        1.9837160226       22.9441527277
  S         9.7803838424       10.2601568467       17.5078966158
  N        10.1261609580        9.7593003111       16.0272051190
  C        10.6019125797        7.5954722843       14.8742518703
  H        10.5966350236        5.4916307208       14.2026087010
  C         4.0382244709        1.3055645559       36.0912838420
  N         4.0894031834       -0.0302138860       36.2548433188
  O         4.7725692070       -1.9184939853       35.1591714856
  H         3.8712714043        0.7950634331       17.7347088640
  H         2.7921847730        2.2764895302       18.1634796809
  C         2.2583998659        0.3081726794       19.0210285939
  H        14.4138108360        1.4955528224       23.7189908591
  H        15.5210943530        1.2423362254       22.3529602897
  C        15.9885517723        2.7985550636       23.7455462268
  C        10.7821579743        8.2803029849       13.6107186126
  S         3.4561840836        2.2281721506       37.4187204085
  C         3.8334400971       -0.7667953368       37.4577134658
  H         2.1690265223        0.2920050107       20.1037282487
  H         1.2236712973        0.5990919479       18.6631827394
  C         2.5560422738       -1.1769383885       18.5749604561
  H        16.2526065620        2.1323448124       24.4984004348
  H        15.5496307034        3.7605217176       24.1184181908
  C        17.0600660255        3.1838747454       22.8331438514
  H        10.3904101372        9.3019543091       13.5909652436
  C        11.2651801387        7.8952141913       12.4141908762
  H         3.1184397617       -0.3283522387       38.2111738883
  H         3.3603389492       -1.7207086107       37.1814776912
  C         5.0065079471       -1.1048675792       38.2318989624
  H         1.9724704836       -1.8851672980       19.2256817362
  H         3.5775481056       -1.4048276758       18.8421639746
  C         2.2606836448       -1.6604974705       17.1233842899
  H        16.7773086849        3.0460453191       21.8405446793
  H        17.2585296792        4.2541357841       22.8536786391
  C        18.2878992792        2.3406212862       23.1079894631
  S        11.7527444951        6.3354410318       12.0151100175
  C        11.3847521484        8.9431132853       11.3517968191
  H         5.8089445688       -1.5303923500       37.6029675165
  H         5.3609660916       -0.3068359552       38.7851098218
  H         4.7465139166       -1.9230051888       38.8086570568
  H         1.6115826905       -1.0178426528       16.5960223880
  H         1.6945484594       -2.5526708146       17.1807337088
  H         3.1259748354       -1.9010693058       16.5052195404
  H        18.6090671859        2.4555682061       24.1513200046
  H        19.1272114785        2.7572409671       22.5781444022
  H        18.1647474261        1.2570439809       22.9382947738
  C        12.1732064233        7.0504347902       10.4830896249
  N        12.0175439497        8.4007874705       10.3971629613
  O        10.9376996805       10.0573839099       11.3286567194
  S        12.9255254230        6.2272029013        9.2357906154
  C        12.2119219231        9.1585515291        9.1731265504
  H        12.2695240810       10.1935696022        9.3537601724
  H        13.1536125866        8.9585159254        8.6350720662
  C        11.1399201014        8.9480020869        8.1978503618
  H        10.5983482826        9.8766032786        7.9724892101
  H        11.6566655243        8.6758202639        7.2868804909
  H        10.4559403268        8.1268623123        8.4653282910
  H         4.4612037574        1.6352156198       13.0840076952
  C         3.7736763680        2.5058913852       13.1327152613
  H         4.4532601860        3.4084733932       13.1336221411
  C         2.8842897137        2.5865369421       11.8929101544
  C         2.9721785482        2.4600407822       14.4535379023
  C         3.6763403637        2.8211979507       10.5970010842
  H         2.2957769963        3.5131336212       12.1063441010
  H         2.1890784898        1.8055444117       11.7352128172
  H         3.4524517958        2.8860836712       15.3278301127
  H         2.7528056040        1.4442758149       14.5959619348
  H         2.0788221156        2.9844452269       14.1794770257
  C         4.5329073537        1.5525208640       10.2510425887
  H         3.0374751524        3.1492455943        9.8067493683
  H         4.2359428637        3.6724937430       10.6988198816
  C         5.1905303987        1.6789728997        8.8519132516
  H         4.0448789470        0.6176255568       10.3809748089
  H         5.3337330408        1.5560113927       10.9660116868
  C         6.4314668531        2.4825236788        8.8029722870
  H         4.4244596386        2.1851174783        8.1983902325
  H         5.4997012255        0.6700054487        8.4848680863
  C         7.7129264317        1.6767469255        9.3196305109
  H         6.5174148291        2.8281858058        7.7600921102
  H         6.2306865930        3.3887721096        9.3305393174
  C         9.0229688521        2.5116403600        9.5320388459
  H         7.9581137187        0.9358506649        8.5391747994
  H         7.4795673802        1.1392659942       10.1913557223
  C         8.7035251339        3.8837322222       10.2039024428
  C         9.4885704719        3.2591284624        8.3154379816
  C        10.1795513629        1.7607626682       10.2573202579
  C         9.0277445160        4.9959273868        9.4813149954
  C         8.1617189923        4.2963309305       11.4105923225
  C         9.5319581660        4.6388232196        8.2680308518
  C         9.9693086902        2.6357802913        7.1671313162
  H         9.7954216540        1.3609230180       11.2004525458
  H        10.4320217758        0.8488552888        9.6679792966
  C        11.4267043862        2.5804308098       10.5233192773
  S         8.7245163827        6.5306184502       10.1755454660
  C         8.0342207592        5.6570618052       11.4652829336
  H         7.9585060913        3.5002460404       12.1290000849
  C        10.1099196822        5.2643908955        7.1563537778
  H         9.9287235525        1.5494160501        7.1427928813
  C        10.5442190069        3.2689833193        6.1115209499
  H        11.1922189599        3.5374907544       11.0386070432
  H        11.7549589454        3.0703121424        9.6566713083
  C        12.7063975837        1.9946851686       11.1527629676
  C         7.5284863410        6.3878850131       12.6514061726
  C        10.5749422409        4.6214618870        6.0397320923
  H        10.0218397149        6.3476901894        7.1680604974
  C        11.0539265852        2.7683146083        4.9125778476
  H        13.6514689740        2.5451955455       11.2197899524
  H        13.0459697446        1.1115044797       10.5318899132
  C        12.7130639761        1.5417365422       12.6260760336
  C         7.6789247490        7.7811104513       12.8558874509
  C         6.8762588538        5.6181874862       13.7485307507
  C        11.0881204405        5.2486283494        4.7692814445
  C        11.3342875232        3.8561208326        4.1122569694
  S        11.4070724923        1.2538712626        4.2063123924
  H        12.0961655093        0.6932850677       12.7780230116
  H        13.6569999143        1.0657851015       12.8438616365
  C        12.6129623933        2.6679838380       13.5827789065
  N         7.9950124269        8.6778803128       11.8083497580
  C         7.4249884726        8.3530720410       14.1148202113
  C         6.6495359949        6.1990567373       15.0049908138
  H         6.6697062640        4.5668953932       13.6211664555
  C        12.2955716495        6.1894250636        5.0200109398
  C         9.9868700445        5.9823647337        3.9846123582
  C        11.7459778956        3.4187069621        2.8389659548
  C        11.7624666714        2.0609458822        2.6772371645
  H        12.5303937098        3.5495617797       13.0085186344
  H        13.5658718163        2.8646159297       14.0812741701
  C        11.5787360458        2.5139208475       14.6613371403
  S         8.0511617957       10.1091179661       12.5411039189
  N         7.6042227238        9.6611821959       14.1003779634
  C         6.9301727957        7.6166108249       15.2400887227
  H         6.1521498028        5.6576797038       15.7672239036
  H        12.1413592522        7.0089034309        5.7045473984
  H        12.5548649813        6.6787208561        4.0521551579
  C        13.5179201460        5.5158816535        5.4046104198
  H         9.5661219676        6.7714506600        4.6401197469
  H        10.3568539272        6.4533626612        3.0814056453
  C         8.7386477144        5.2047288326        3.6066082038
  H        11.8809441020        4.1407579354        2.0799500535
  C        12.0956087880        1.3770787554        1.3817800246
  H        11.6299856132        3.5015919920       15.0997108074
  H        10.6247402268        2.2298329890       14.2945928456
  C        12.0572186801        1.5476720039       15.7122429885
  C         6.5903931248        8.4118639259       16.3862379923
  H        13.5203616141        5.2167343104        6.3877312227
  H        13.6561648601        4.7452922457        4.6824764850
  C        14.7199558815        6.3929802717        5.3873930355
  H         8.4141219717        4.6696028964        4.4979261789
  H         9.0000483973        4.4106698038        2.9223835127
  C         7.4448593478        5.9542357841        3.1178225386
  C        11.9604187742       -0.0178778194        1.2211094594
  C        12.4494467248        2.1908974662        0.1693654978
  H        12.7181623837        0.7059815356       15.3319591761
  H        11.2084512611        1.0033986685       15.9853134834
  C        12.7144503089        2.0779496052       16.9697582946
  H         6.5763712783        9.4896866098       16.2845557671
  C         6.3941852497        7.9592878954       17.6994727658
  H        14.7381261531        7.0999264094        6.1248475048
  H        14.7846966297        6.9381460255        4.5097498553
  C        15.8833737933        5.5030203660        5.7291491389
  H         7.0564604136        6.4668265404        3.9684337315
  H         7.6051304116        6.7211247349        2.3543371462
  C         6.3914195054        4.9842846155        2.6478598180
  N        11.6994726943       -0.8597416260        2.2190699470
  C        12.3128772969       -0.6578512823        0.0477096075
  C        12.6686898269        1.5369481357       -1.0837926388
  H        12.4313934945        3.2159414874        0.1638045773
  H        12.0654872403        2.2464682389       17.7972939912
  H        13.1546015196        3.0361830281       16.7671682779
  H        13.5235789116        1.3977104621       17.1949990339
  S         6.2630533688        6.3201361530       18.3549247830
  C         6.2923580248        9.0479862112       18.7208718213
  H        15.4867090793        4.7174188484        6.4483808745
  H        16.4344425577        5.0749816971        4.8493321169
  C        16.8028871970        6.2647881443        6.6055944621
  H         6.3621647314        4.2681893545        3.3875620496
  H         6.6804947719        4.4629153817        1.7586174752
  C         5.0478416636        5.6501828975        2.2992866062
  S        11.8228277060       -2.3775694227        1.7049509977
  N        12.2385986707       -2.0301807691        0.1696103655
  C        12.7133360484        0.0411138859       -1.1872679837
  H        12.8865150730        2.1146981998       -1.9479362412
  C         6.0924537283        7.1297519649       19.8937819796
  N         6.1026027515        8.5040489555       19.9093474461
  O         6.4149512833       10.2544974968       18.4093277428
  H        17.3127565945        6.9743598635        5.9958300992
  H        16.2085027534        6.8121938852        7.3451154069
  C        17.6387372970        5.3551368989        7.4454578845
  H         4.1530927310        5.0488132695        2.3250668080
  H         4.8683982592        6.3622662855        3.0974206615
  C         5.0952125894        6.3660961491        0.9361012691
  C        12.8770623236       -0.6743509325       -2.3920239069
  S         5.9668298351        6.2452935439       21.4179501598
  C         6.0911245952        9.2104236306       21.1513014326
  H        17.1490109321        5.2265353729        8.3862579980
  H        17.7839849649        4.3045125814        7.0802174707
  C        18.9632466420        5.9908953228        7.7180751349
  H         4.5993789992        5.7418098250        0.2079995614
  H         6.1880229148        6.4786920882        0.7350343948
  C         4.4312047418        7.7508650178        1.0816915975
  H        12.3590825098       -1.6146874065       -2.4708719188
  C        13.3426871881       -0.4418450349       -3.6756128161
  H         5.4688015739        8.7948197784       21.9372519788
  H         5.5466911109       10.1209285103       20.9692594102
  C         7.4630939214        9.3413306311       21.6085649994
  H        19.3854347227        5.2063669871        8.3225100419
  H        19.0107351097        7.0215365250        8.1160933119
  C        19.8454263584        6.0233109951        6.4801253245
  H         4.1820811712        8.1805358243        0.0918456664
  H         3.4635799941        7.5137161009        1.5588858797
  C         5.2258412905        8.8621445100        1.8847742736
  S        13.9450066825        1.1055317588       -4.1058886250
  C        13.2614695646       -1.4744283688       -4.7725495973
  H         7.7912707914        8.5549722547       22.2337554268
  H         7.6166260494       10.2064007662       22.3350373812
  H         8.2516038462        9.6192472654       20.9265973471
  H        19.6875923388        6.8402680761        5.8002919166
  H        20.9022703923        5.8692126549        6.5747605405
  H        19.6015363342        5.1497448113        5.8945808369
  H         5.4866986914        8.6286999624        2.9319269309
  H         6.1932619046        9.1823183970        1.4296870514
  H         4.4823290725        9.7097577392        1.9228331018
  C        13.9803469048        0.4984017314       -5.7613722069
  N        13.8704853683       -0.8779973699       -5.8522213134
  O        13.0325279299       -2.6946883181       -4.6745008927
  S        14.4219442763        1.3981585533       -7.1374679978
  C        14.0664347048       -1.6408207723       -7.1048152439
  H        14.4415857693       -2.6543378114       -6.9263953069
  H        14.8929028633       -1.2129440749       -7.6999658885
  C        12.8368472969       -1.6844661843       -7.9493485536
  H        12.6692862560       -2.7239311895       -8.1163135641
  H        12.9877792623       -1.3660763257       -9.0035824903
  H        12.0371615899       -1.1460504014       -7.4641856969
