352
 i =    74300, time =    37150.000, E =        97.9436631277
  H        12.3834897421        6.5627015287       32.6325024429
  C        12.0305145659        5.5704061992       32.3735349671
  H        12.8207747389        4.8981486479       32.1921813504
  C        10.8835096623        5.7098840596       31.3221589149
  C        11.4429572831        5.0645433103       33.6436144688
  C        11.5000031343        5.7609110832       29.9142631428
  H        10.3164202730        4.7940733550       31.4509080062
  H        10.2713637356        6.5073881351       31.5994280577
  H        11.9438725950        4.1476650246       33.9452615466
  H        11.6678978102        5.6951851739       34.4660776254
  H        10.3838962403        4.9101041236       33.6387201790
  C        10.5259228598        5.9481979009       28.7364900864
  H        12.0473901844        4.8323960116       29.7837022005
  H        12.3178199383        6.5172378287       29.8266254897
  C        10.9994900565        5.6663768945       27.3529305865
  H         9.6371236279        5.2426732599       28.9393930799
  H        10.0775052896        6.9326358522       28.8325441716
  C        10.0094108098        5.1074023561       26.3790300333
  H        11.7160982027        4.9466697035       27.4926034949
  H        11.6009140783        6.4712247193       26.8970432679
  C         8.7755538269        5.9937773467       26.1444625075
  H        10.5869489587        4.8682589884       25.3935097938
  H         9.7366679238        4.0665990934       26.7799374558
  C         7.5642078284        5.2696213310       25.4695119715
  H         8.5119707109        6.6791641963       26.9535666877
  H         9.0427811228        6.6651316167       25.2943288436
  C         7.1122383971        3.9158627616       26.1441432661
  C         8.0353565427        4.4993758957       24.2654438825
  C         6.3142971200        6.1780000865       25.2824827622
  C         7.4616298522        2.7741149037       25.4826679495
  C         6.4844358096        3.5529781723       27.4015574160
  C         8.0475708332        3.1317782058       24.2624900762
  C         8.5549133592        5.1035691873       23.0866583936
  H         6.3949352629        6.9112063836       24.5007565436
  H         6.1644677696        6.7541374330       26.2199338340
  C         5.0768931507        5.3268495855       25.0108399961
  S         7.0708311581        1.3069577673       26.2558462224
  C         6.4549429437        2.2000924395       27.6095562604
  H         6.1980582215        4.3480596012       28.1355761209
  C         8.4464707000        2.5127356360       23.1309855556
  H         8.6969573111        6.1572653352       23.1581592990
  C         8.9713374445        4.4396070929       22.0096323962
  H         5.2131372722        4.8688358309       24.0255505974
  H         4.7035982519        4.6165710729       25.7658169039
  C         3.8992085811        6.2879899030       24.6987974201
  C         6.0270800883        1.6555082924       28.9252787861
  C         8.8762609755        3.0893975519       21.9500731732
  H         8.5352762134        1.4658012393       23.2508906545
  C         9.3746772028        4.6654090833       20.7269419342
  H         3.2456661157        5.9024043074       23.9033976580
  H         4.2521796032        7.1376435679       24.1942661125
  C         3.1126330213        6.6602315762       26.0189785133
  C         6.0553107516        0.3468217665       29.3563797353
  C         5.6298680947        2.5876327942       30.0717050746
  C         9.1563269170        2.2658894045       20.7057076102
  C         9.5138595414        3.5424718185       19.9762686985
  S         9.5374632999        6.1526302032       19.8407502919
  H         2.3932826066        7.5169003557       25.8285173152
  H         3.8840369688        6.9052653184       26.7103020091
  C         2.2480983838        5.4512797647       26.6106883907
  N         6.6126453156       -0.6356408428       28.5058356677
  C         5.6969219638       -0.1698857600       30.5802927617
  C         5.2346160166        2.0940136217       31.3271592695
  H         5.7478544012        3.6744217407       30.0016628753
  C         7.8547279610        1.5104756962       20.1459170436
  C        10.4601257108        1.4109506153       20.8392048705
  C         9.8432781548        3.8606019408       18.6476244589
  C         9.9107505957        5.2096308047       18.4662405388
  H         1.6273415698        5.1624199132       25.8188367424
  H         2.8432584621        4.6243611406       26.8127996174
  C         1.5341782590        5.8554865403       27.9454284859
  S         6.3243116587       -2.0741198976       29.1606431420
  N         5.7821778208       -1.5990744537       30.5943654342
  C         5.4289812626        0.6516549601       31.6843196370
  H         5.0068863326        2.8267662668       32.0886093361
  H         7.5728202493        0.8238162571       20.9064625915
  H         8.1454427614        0.9056971383       19.3264903698
  C         6.6170074821        2.3366864345       19.7936369019
  H        10.6457403960        0.7146307434       20.0393144906
  H        10.3825387312        0.8210717872       21.7243152730
  C        11.7677256737        2.2209877167       20.9608799728
  H         9.9473968739        3.0469370894       17.9957321771
  C        10.1101985528        5.9069979901       17.0963158748
  H         0.6279538928        5.2085086571       28.0674268515
  H         1.0702282805        6.8181488076       27.7451292786
  C         2.4300508245        5.7781883485       29.2607411016
  C         5.1693112635        0.0460612468       32.9877748244
  H         6.6947084771        3.0406345641       18.9437003437
  H         6.3749599919        3.0103096736       20.5798181386
  C         5.3780613435        1.5179936177       19.5482998431
  H        11.7139531307        2.7077782114       21.8820288408
  H        11.9921423168        3.0166239946       20.3553338811
  C        12.9566694945        1.2724701911       20.9836063096
  C        10.2190193698        7.3232409516       16.8614448081
  C        10.2394760582        5.0626851022       15.8634695510
  H         2.9523776439        4.8046054547       29.1966885360
  H         3.2732898895        6.4786286410       29.2434092161
  C         1.5693669659        5.7052782548       30.5385314828
  H         5.3706384079       -0.9763391534       32.9971327580
  C         4.8823470798        0.5570715608       34.2180600650
  H         5.0934976877        1.2955761558       20.5533695566
  H         5.6197674076        0.5613529025       19.1282588641
  C         4.1797820822        2.2511616540       18.9456545790
  H        12.7919798164        0.6115625809       21.7538420243
  H        13.0624361138        0.7221308300       19.9967406081
  C        14.2451232657        2.0871349888       21.1271010448
  N        10.0826200876        8.2839705849       17.8679356057
  C        10.3943416240        7.9178614064       15.6087765749
  C        10.5707270299        5.6557495544       14.6179166639
  H        10.1900181629        3.9671328900       15.9043307814
  H         0.8395932883        6.5129201217       30.5810275022
  H         0.9154643069        4.8794079939       30.4707440716
  H         2.0638647268        5.8226334983       31.4988490534
  S         4.5074164398        2.1849248255       34.6535244171
  C         4.9788919774       -0.4488649350       35.3238742767
  H         4.0123728788        3.1169208860       19.5597834534
  H         4.5755667209        2.5309012865       17.9759237713
  C         2.9071542680        1.4879057793       18.8606723494
  H        14.0164034552        3.0050323190       20.6124531429
  H        14.9847455966        1.5314483579       20.5888867399
  C        14.5283559815        2.1607089339       22.6197219907
  S        10.1449356935        9.7599184055       17.2630078871
  N        10.3919198984        9.3252917351       15.7056032387
  C        10.6508545589        7.1113140837       14.4695952637
  H        10.5770532906        5.0114891650       13.7593004784
  C         4.4465932735        1.5109099899       36.3092114444
  N         4.5156245108        0.1872285466       36.4485119150
  O         5.1739116927       -1.6161665401       35.1859879735
  H         2.1033384721        2.1208295009       18.7076403773
  H         2.7050291575        0.9701506885       19.7746140487
  C         2.9640344626        0.7036264560       17.5758194763
  H        13.5239179113        2.1565522403       23.1643467469
  H        15.0600381947        1.2603934877       22.8707197113
  C        15.5450959396        3.3521402057       22.8213160205
  C        10.9304762063        7.8530192855       13.2505221578
  S         3.6788171241        2.4480389841       37.5717742052
  C         4.2172066521       -0.5553213379       37.6877584111
  H         2.8173011721        1.3669254865       16.7875111836
  H         3.9447631161        0.3541226503       17.4703986260
  C         1.9748188363       -0.4510271890       17.5593748352
  H        15.6385460547        3.7631271157       23.8680486519
  H        15.2051587745        4.1737742788       22.1384589116
  C        17.0155056439        2.9975484330       22.4728004444
  H        10.4532216297        8.8149899667       13.1356575501
  C        11.5896333576        7.5214106536       12.1106819015
  H         3.4071348745       -0.1101003011       38.2581637385
  H         3.8392994624       -1.5038612068       37.3909268292
  C         5.5210920895       -0.9620257130       38.4390857885
  H         1.7849254650       -0.5926727124       16.4629277634
  H         1.0020688007       -0.1238130714       18.0263392018
  C         2.5784652849       -1.7032542858       18.1800887877
  H        17.1809416174        2.5942434155       21.4307474483
  H        17.4908011097        3.9753478894       22.4334321796
  C        17.7487456242        2.1747385850       23.4485853551
  S        12.4297930983        6.0694507404       11.7066085116
  C        11.6083718343        8.5857927245       11.0363410883
  H         5.2133430223       -1.8514015974       38.9956782901
  H         6.3363485511       -1.1621273625       37.7163035569
  H         5.8561882163       -0.1980463436       39.1433347872
  H         3.4377251692       -1.9962682450       17.5448060760
  H         1.8968893906       -2.5791182885       18.3279040189
  H         3.0460633022       -1.5230337334       19.1378378513
  H        18.7278864758        2.0016502960       23.0476612518
  H        17.1975224740        1.2364251444       23.5550611224
  H        17.8974829263        2.6642807542       24.3923281171
  C        12.9252274809        6.9233347140       10.2446405087
  N        12.4191744097        8.1872442836       10.0704888548
  O        11.1257622570        9.6595055132       11.1500656774
  S        14.0007664811        6.3360419369        8.9474673458
  C        12.6439750382        9.1112680681        8.9132933727
  H        12.6396210015       10.1283061460        9.3766284925
  H        13.5740576048        8.9581152725        8.3556813780
  C        11.4306983897        8.9821283532        7.9795400744
  H        10.4799919862        9.0951035711        8.4789663778
  H        11.5367026444        9.8633823108        7.3511194063
  H        11.5325494935        8.1690334302        7.2381421119
  H         1.8105912381        1.5979474987       12.2376618911
  C         2.7410454190        2.1114610090       12.3515466853
  H         3.5025566816        1.3343877816       12.2103120869
  C         2.9508782971        3.2577430599       11.3261079966
  C         2.8298716391        2.7167909158       13.7657995459
  C         4.2381950526        3.2014389116       10.4911898441
  H         2.8004516908        4.3156971436       11.6647505131
  H         2.0938849680        3.0650948811       10.6567206492
  H         2.5758451043        1.9179312939       14.4228291663
  H         2.1444936953        3.5622861867       13.8668842751
  H         3.8149481953        3.0977154335       14.0174124876
  C         4.3443605033        2.0150901567        9.5718971461
  H         4.1686537869        4.0574503672        9.9127279706
  H         5.1154920269        3.3294773988       11.1427312170
  C         5.1358290490        2.2764869871        8.2799951988
  H         3.3531786133        1.6915351993        9.3239865361
  H         4.9046104067        1.2014773047        9.9919707137
  C         6.5189802293        2.8537521668        8.5540937720
  H         4.6584108178        3.0694971096        7.6056461100
  H         5.1041833257        1.3788780808        7.6920465451
  C         7.7031497877        2.0584214149        9.2267995039
  H         6.8923990545        3.1172452398        7.5474409502
  H         6.4486110237        3.7676909224        9.1315499512
  C         9.0317875798        2.8267366323        9.2817244503
  H         7.8362242194        1.0948682961        8.8044771323
  H         7.3930151883        1.7236325312       10.2280858747
  C         8.8431149339        4.2222509461        9.9953356305
  C         9.4933421356        3.5038843592        8.0183508843
  C        10.1915853515        2.0675697296        9.9639468448
  C         9.1181617494        5.2955602237        9.1919121913
  C         8.2850210477        4.6561129981       11.2394278743
  C         9.6032937316        4.8815244221        7.9810661073
  C         9.8654048902        2.8804808348        6.8601199013
  H         9.8201154049        1.5502204413       10.8506568442
  H        10.5087159643        1.2545254646        9.2822765318
  C        11.4537721203        2.8285873889       10.1451454263
  S         8.6992576718        6.7564226270        9.9186177410
  C         8.1857650916        6.0302290467       11.3474561244
  H         8.0332617978        3.8844098841       11.9750074426
  C         9.8518104342        5.4749988940        6.8117494581
  H         9.8470324545        1.8117870890        6.9191245264
  C        10.3184685509        3.4799540150        5.7503179737
  H        11.2483225538        3.7264539395       10.7357568296
  H        11.7150164341        3.3025921825        9.2230448179
  C        12.4676824125        2.0829903997       10.9561185505
  C         7.7897980652        6.7063648412       12.6129779692
  C        10.2857412730        4.8398432641        5.6504482791
  H         9.7150922459        6.5350988175        6.8133994186
  C        10.8060933316        3.1379959908        4.5157107927
  H        13.4436692267        2.4595939937       10.8197158618
  H        12.5069692240        1.0304183305       10.6874933623
  C        12.1576699990        2.1470400618       12.3950110833
  C         7.7524388569        8.1007406296       12.8977374232
  C         7.2810525886        5.8692535717       13.7064305207
  C        10.7400522929        5.5915819979        4.4166907141
  C        10.9962514829        4.2214616460        3.6905611158
  S        11.1809915119        1.6572864577        3.7008487187
  H        11.6890596965        3.0931259886       12.6191494728
  H        11.4621511139        1.3457922694       12.6739917517
  C        13.3945909506        1.9908864966       13.2779327318
  N         8.0030379217        9.1545149296       11.9323670598
  C         7.5997472630        8.6857065961       14.1530962014
  C         7.0428959898        6.4706943218       14.9230212436
  H         7.0499309094        4.7903601170       13.6363779820
  C        12.0701678916        6.3235056957        4.6506471070
  C         9.6782912864        6.5419207183        3.8249100882
  C        11.3371191388        3.8505902899        2.4094567301
  C        11.4348986702        2.5054433926        2.2616603786
  H        13.8546461357        2.9419766024       13.4126818762
  H        14.2453405816        1.5592032921       12.7204255855
  C        13.1616639652        1.2557806483       14.5308608534
  S         7.9726140455       10.5779139168       12.6799351380
  N         7.6819841759       10.0586896271       14.1880708564
  C         7.2739818329        7.9066255666       15.2792803692
  H         6.7392076507        5.8078933384       15.7170260624
  H        12.0136493145        7.0975329101        5.4830981469
  H        12.2732578175        6.8977887246        3.7704220825
  C        13.3334907799        5.4545089094        4.9860681138
  H         9.5349545948        7.3299283060        4.5466209664
  H        10.0212658611        6.9501616681        2.8949950718
  C         8.4352104403        5.6910856531        3.5156479732
  H        11.3866480546        4.5741879630        1.6270189008
  C        11.6696044477        1.7504670011        0.9755716555
  H        12.6311964011        0.3107323841       14.3007062413
  H        14.1975236879        0.9062263475       14.8260663190
  C        12.4158340138        1.9801011806       15.5921289131
  C         7.0597351265        8.5440511738       16.5311167673
  H        13.2096342511        5.0208072833        5.9892495049
  H        13.4275377608        4.7698913439        4.1189019354
  C        14.5489331623        6.3164170650        5.1338633404
  H         8.1695491195        5.1871454372        4.4455796944
  H         8.5722071824        4.8878781151        2.7317585036
  C         7.3386297550        6.6062575527        3.0248238183
  C        11.7774398043        0.3306457934        0.6935135904
  C        11.9815042920        2.5642504787       -0.2368563835
  H        11.3721236611        1.6479903933       15.8016818198
  H        12.2621264422        2.8983368466       15.0817407005
  C        13.1925819092        2.1264020339       16.9482653580
  H         7.1975397680        9.5875178131       16.5647467950
  C         6.7370491922        8.0653197848       17.7860342434
  H        14.2523595532        7.1019512164        5.8156577579
  H        14.9329829603        6.7731120620        4.2389035848
  C        15.7475931584        5.4345841686        5.5468961384
  H         7.0502734895        7.3265588975        3.8475685399
  H         7.6778728906        7.3419978310        2.2592894037
  C         6.0116412358        5.9686402856        2.6108024319
  N        11.6803652988       -0.6399930958        1.7044464919
  C        11.8760129883       -0.2367612376       -0.5440353369
  C        12.2345177596        1.9195977668       -1.4871386141
  H        12.2238078925        3.5895208358       -0.0242039976
  H        14.1918830053        2.0617331660       16.6841029372
  H        12.8342681457        1.3437903972       17.7036672910
  H        13.0408765183        3.1633649589       17.4007610607
  S         6.5786209937        6.3713396844       18.2341278484
  C         6.5687671122        8.9569933981       18.9211704758
  H        15.4085407537        4.6290700722        6.2421816144
  H        16.2567583643        4.9927304756        4.7360463471
  C        16.8331369075        6.2465697783        6.2119845553
  H         5.4437435775        5.9971477098        3.5317914041
  H         6.1701898739        4.9514633504        2.4233930396
  C         5.2164481442        6.6100655673        1.4778273940
  S        11.5806761015       -2.1783196317        1.0385893375
  N        11.8013053580       -1.6137137346       -0.5298419377
  C        12.1607707731        0.4353270745       -1.7361021910
  H        12.4547954002        2.6198416569       -2.2998248845
  C         6.1279688002        6.9490819988       19.8185418106
  N         6.2881495800        8.2502362666       20.0570881436
  O         6.9311830952       10.0957844365       18.8430342792
  H        17.4442863545        6.6325818990        5.4443618424
  H        16.3717397140        7.0798002595        6.7222443374
  C        17.6084988151        5.3475454933        7.2167719218
  H         5.6620943037        6.5126458342        0.4890160442
  H         4.3519736729        5.9522508186        1.3600997615
  C         4.7438508193        8.0280143888        1.8931267960
  C        12.4952036827       -0.2682014816       -2.9718129260
  S         5.6179525650        5.9660665483       21.1700455215
  C         6.2040822176        8.9917197574       21.3590199968
  H        17.1569347094        5.4005834153        8.1591218823
  H        17.5175208537        4.3436089954        6.9546829181
  C        19.1037466042        5.7050242821        7.1732850896
  H         5.5579431327        8.6881264830        1.7099714357
  H         4.5914651160        8.1309258359        2.9641902639
  C         3.5029418202        8.4188097709        1.1966583171
  H        12.2671409443       -1.3600689854       -2.9196315089
  C        12.9433802704        0.0968038220       -4.2077650296
  H         5.4811252525        8.5836161884       22.0713222554
  H         5.8727110871        9.9353200507       21.1676316353
  C         7.5088898951        8.9768901517       22.1253085516
  H        19.6762900257        5.2033292476        7.9500326483
  H        19.1122630937        6.7256330504        7.3950556234
  C        19.7436688416        5.3369738589        5.8437445199
  H         3.5401459988        8.2350476864        0.0797090588
  H         2.7148353013        7.7784020983        1.5082878218
  C         3.2743746242        9.9466847677        1.4634238150
  S        13.4249981806        1.6595771012       -4.6848148762
  C        13.0236920200       -1.0070557572       -5.1682872318
  H         7.6305565562        9.8785490308       22.7346005582
  H         8.3097723054        8.9550518738       21.3764190058
  H         7.5962798684        8.1866206183       22.8790718603
  H        19.8124553328        4.2375991400        5.8108739980
  H        19.3152849362        5.6918567711        4.9133204887
  H        20.7819016385        5.5862298098        5.8781585093
  H         3.2415751254       10.5071573940        0.5736630814
  H         2.2956754132       10.0450862587        1.9417605045
  H         4.1232560705       10.3615903385        1.9682404927
  C        13.9010681604        0.7808105740       -6.2124436443
  N        13.6628687297       -0.5705317565       -6.2079981133
  O        12.7501130461       -2.1425688995       -4.9756873593
  S        14.6061457551        1.6505716596       -7.5392093340
  C        14.0664278929       -1.4108913547       -7.3458811303
  H        14.2969377222       -2.4237233265       -7.0639252619
  H        15.0130229457       -1.1051791325       -7.6635881106
  C        13.0719563612       -1.3469433197       -8.5291856784
  H        12.2594432643       -0.6927543265       -8.4742809433
  H        12.6226220173       -2.3389421411       -8.7856784230
  H        13.5087872793       -1.1137681153       -9.4446291490
