352
 i =     6700, time =     3350.000, E =       167.8490867345
  H        12.0512973154        5.4037876550       31.8281154464
  C        11.0801679969        5.3823048242       32.2739659508
  H        10.7514642156        4.3175043687       32.2521420490
  C        10.2045524467        6.0255945467       31.2266834241
  C        10.9636754445        5.8285945254       33.7088800885
  C        10.3119419380        5.4044586865       29.7925856478
  H         9.1899715423        5.9376382352       31.6925699533
  H        10.4171045610        7.1079825095       31.1000637840
  H        11.5461486468        6.7071612916       33.9218859006
  H         9.8939020513        6.0100206699       33.8616212748
  H        11.3224105450        5.0633459149       34.4040097834
  C        10.6109270674        6.4520923677       28.7642032672
  H         9.3167090027        4.9261575640       29.6511730818
  H        11.1513886560        4.6107875620       29.7893813114
  C        11.0553498390        5.9357237607       27.3465730982
  H         9.7791785821        7.0455450300       28.6674035702
  H        11.3400318826        7.0385390967       29.1938283095
  C        10.0037360985        5.0755151020       26.5670648704
  H        11.9575771202        5.3606631631       27.4441829953
  H        11.2828654408        6.7669678708       26.7715766620
  C         8.6956647708        5.9084125818       26.2454811159
  H        10.5662294336        4.6102292034       25.7424006830
  H         9.7078414328        4.2309896005       27.1824339386
  C         7.5849418176        5.0998812358       25.4742933613
  H         8.3978907007        6.2473630582       27.2476718139
  H         8.8352197715        6.8988136334       25.7731664136
  C         7.2263465857        3.7827928668       26.1924254191
  C         8.1453201321        4.4408799415       24.2920517674
  C         6.2834790392        6.0367199743       25.2254045111
  C         7.3888974246        2.7697672642       25.3305425003
  C         6.6754550910        3.3283545425       27.3712182776
  C         8.0644739082        3.1132862101       24.1069402545
  C         8.7021689234        5.1261405752       23.2319490590
  H         6.5088579609        6.7790395818       24.5011210725
  H         6.1547387858        6.5351958810       26.1964452210
  C         4.9794464432        5.3571363381       24.9180019715
  S         7.0886726054        1.2151221513       25.9173144545
  C         6.5500924328        1.9498762603       27.3589848972
  H         6.3649968585        4.1160736085       28.0817822755
  C         8.5132550455        2.5478135286       22.9399493241
  H         8.7587956556        6.1661241652       23.4371073984
  C         8.9802324349        4.5314085905       21.9966717088
  H         5.0870619101        4.6628543581       24.1849881315
  H         4.5951143245        4.9317496757       25.7936077810
  C         3.9817035410        6.2494009739       24.4547877294
  C         6.0443464465        1.0699048612       28.4962298482
  C         8.9818342082        3.1999614617       21.8096711527
  H         8.2275298249        1.5818690451       22.8562757061
  C         9.3794422098        4.9443282599       20.7031924628
  H         3.4819938527        5.9158817656       23.5136783873
  H         4.3590434821        7.1494599277       23.9408179615
  C         2.8886516221        6.4846840821       25.5116659321
  C         6.0108495101       -0.3496412927       28.6925432042
  C         5.3791129993        1.8725513210       29.5817378465
  C         9.3734021063        2.5188405449       20.4760064375
  C         9.5964551172        3.9179074054       19.7742077746
  S         9.6875117602        6.4323813597       19.8544457085
  H         2.2580724869        7.1374023177       25.0579200288
  H         3.2864779949        7.1072677645       26.3773261533
  C         2.0830701614        5.3010823742       26.0145725069
  N         6.5396805513       -1.2351264340       27.7564871777
  C         5.7178558986       -0.8830191192       29.8859133172
  C         4.9699215144        1.3696336361       30.7886067368
  H         5.1149358926        2.9290744297       29.3460768652
  C         8.2294787764        1.8466898320       19.6811357802
  C        10.6045600946        1.6831194238       20.6917909359
  C         9.8275250120        4.3042382879       18.4512150531
  C         9.9743387045        5.7154829063       18.3199762639
  H         1.1982357631        5.2841666118       25.2900084095
  H         2.5205704550        4.4168468619       25.9751463012
  C         1.4218174806        5.6564754823       27.2868369362
  S         6.5539855230       -2.6802376501       28.5130372433
  N         5.8495139334       -2.2174898069       29.9530750285
  C         5.2847169722       -0.1398095700       31.0431352459
  H         4.5749625408        2.0053129586       31.5265228190
  H         7.8641396199        1.0551102082       20.2370912498
  H         8.5894122929        1.4078407680       18.8052091805
  C         7.1327357848        2.8042653369       19.4489069277
  H        10.6459794000        1.0802140320       19.8367799486
  H        10.2038803820        0.9857442733       21.4543548316
  C        12.0137757631        2.4167132561       20.9959909149
  H        10.0030646903        3.5922089190       17.6309807573
  C        10.1339123873        6.3946248370       16.9636014100
  H         0.3233818148        5.3698651671       27.3086629776
  H         1.3709156431        6.6371961911       27.6637325723
  C         2.0471395420        4.9347232599       28.4347488893
  C         5.0263500945       -0.7459576879       32.3069593464
  H         7.3544681783        3.5905330965       18.7599079355
  H         6.9297932710        3.3135954901       20.2923434391
  C         5.9845181905        1.9742637258       18.9852503525
  H        12.0970096322        3.0700167951       21.9001300517
  H        12.1337101645        3.1072336569       20.1851886329
  C        13.0510650033        1.3398879894       21.2784825505
  C        10.3372256773        7.7372976436       16.7981851973
  C        10.3581448264        5.6114827673       15.7926372382
  H         1.8002600907        3.9152659969       28.3310141250
  H         3.1220427682        5.0009107045       28.3060058170
  C         1.7473427922        5.6314096342       29.7790271364
  H         4.9347528623       -1.7742656057       32.2005766577
  C         4.7778365033       -0.2816468767       33.6207118087
  H         5.8767944278        1.2811192869       19.7968026207
  H         6.1020759172        1.3767484748       18.0481323738
  C         4.6986241343        2.7826802494       18.7482039812
  H        12.9085189582        0.8403921175       22.2035608850
  H        13.1249500180        0.6481367634       20.4621005013
  C        14.4279964331        1.8811112991       21.4206813294
  N        10.0596984956        8.7041882177       17.8465836391
  C        10.5487686042        8.3231550372       15.6013202001
  C        10.5464713579        6.1240959924       14.5114370861
  H        10.2323138482        4.6148311475       15.8807034519
  H         1.8795546788        4.9048721145       30.5447057256
  H         2.2179145656        6.5556794965       30.0495672453
  H         0.6386132481        5.8014455364       29.7831851713
  S         4.6085703948        1.2968854914       34.0567086085
  C         4.7780418749       -1.3166510317       34.6770701761
  H         4.5749797924        3.5558032898       19.4353412950
  H         4.7700933471        3.3084812118       17.8603028000
  C         3.5246567440        1.7797577210       18.8577423489
  H        14.7116557640        2.6744301036       20.7223522530
  H        15.0877816181        1.1031033812       21.0877101488
  C        14.8710971894        2.2382149889       22.8621257104
  S        10.4631480289       10.1798477373       17.1658394783
  N        10.5472554933        9.6802881462       15.6487324271
  C        10.7564202872        7.6025178506       14.4293680678
  H        10.5186240281        5.5557844361       13.6523343809
  C         4.4276882732        0.6590068483       35.7119409187
  N         4.3910053299       -0.7058742067       35.7765018032
  O         4.9259333018       -2.4907301122       34.3857912844
  H         2.5693107013        2.2965457148       19.1775626594
  H         3.7463646530        1.1048300639       19.7437404997
  C         3.3515998706        1.0754630840       17.5415179689
  H        14.0661559126        2.6933989417       23.4117286404
  H        15.0212552928        1.3513689949       23.4536267518
  C        16.1392298724        2.9814546837       22.9595937699
  C        11.0328074324        8.4004955572       13.2452699561
  S         3.7154167229        1.5493151689       36.9938376090
  C         4.0065269626       -1.3567699418       37.0455642231
  H         2.3873165647        1.3354063610       17.1371251551
  H         4.1162899847        1.3747060774       16.8747864428
  C         3.1929701864       -0.4276674920       17.7708305960
  H        15.7813166901        3.6061157816       23.8119987549
  H        16.4073032565        3.6286248452       22.1525625472
  C        17.3397564882        2.2147958159       23.5458759859
  H        10.4979243899        9.3756048583       13.2344357840
  C        11.2083673884        8.0088933309       11.9228644860
  H         3.1211773757       -0.9762444133       37.6084877600
  H         3.8276936808       -2.3522107284       36.8924493094
  C         5.2856317343       -1.2323705869       38.0288784006
  H         4.0389402642       -0.8466046906       18.3086156487
  H         3.2615223767       -0.8858312883       16.7434731836
  C         1.8941809640       -0.8612524524       18.5637718805
  H        17.8155100346        2.7489007088       24.3826613594
  H        17.1567650802        1.1337982941       23.7816552831
  C        18.4226387834        2.0103632332       22.5470153240
  S        11.6481889774        6.4031459518       11.3336715993
  C        11.3217486176        9.0670596603       10.8274827517
  H         4.9825869048       -1.3817051328       39.1141671869
  H         6.1317436382       -1.8951678139       37.7908244423
  H         5.7955433830       -0.3390329528       37.9943737032
  H         1.7910973176       -1.9699257804       18.4951120867
  H         0.9511353968       -0.3743586518       18.1733471505
  H         2.0311622797       -0.4304876677       19.5451396260
  H        18.9547180273        2.9064225073       22.2918445372
  H        18.0111381584        1.8097605196       21.5427426325
  H        19.0395045642        1.1932125771       22.5743601086
  C        11.9420619100        7.1502210830        9.7906966207
  N        11.8613063910        8.5104059609        9.7887033773
  O        11.3353735690       10.2892665379       11.0849193538
  S        12.5533870318        6.3360079109        8.3453627318
  C        12.0675641741        9.2831626613        8.4671643320
  H        12.2722748919       10.3466124823        8.6230033382
  H        12.9886993344        8.8062259591        7.9956126135
  C        10.7234697838        9.2572982635        7.5826930276
  H        11.0196637304        9.2016988108        6.5169695768
  H        10.0872379664        8.2808541876        7.7450025298
  H        10.1780565147       10.2498732494        7.6126644731
  H         4.5980432275        1.3578325295       12.9624800966
  C         4.0497031750        2.3048797104       13.0017137520
  H         4.7963177583        3.0969526829       12.9132457331
  C         3.1431348511        2.6665923834       11.8116006334
  C         3.3339325131        2.5599983358       14.2373180512
  C         3.9723409590        2.7711802140       10.5130770252
  H         2.9267449073        3.7123177843       12.0547679884
  H         2.3194635298        2.0592900801       11.6978544670
  H         2.8224454436        1.5896355942       14.7717860370
  H         2.4003602007        3.1722006852       14.2249763968
  H         4.0122234223        2.9830172764       15.0188063490
  C         4.7194164589        1.4403918247       10.0797428386
  H         3.2876349468        3.1458501503        9.7681173106
  H         4.7025823183        3.5773600349       10.5550289065
  C         5.1250746675        1.5391176167        8.6538322404
  H         4.0717006196        0.5738006491       10.2512977269
  H         5.5408867325        1.2357524525       10.7953024212
  C         6.2969109761        2.4197224040        8.4726375538
  H         4.2194547944        1.8349084159        8.0497148970
  H         5.3615626173        0.4700851822        8.4612897858
  C         7.6491642361        1.7962008946        8.8490251874
  H         6.4333033815        2.5279175632        7.4234281752
  H         6.0791953977        3.5557063005        8.7356285571
  C         8.9218374958        2.6897681100        8.9543060339
  H         7.8751433990        1.0803498087        8.0829028217
  H         7.5445431634        1.3729129310        9.8273870913
  C         8.6381324654        4.0050996232        9.7179476665
  C         9.3703519414        3.4049540320        7.7062178646
  C         9.9587060872        1.9198492593        9.7229433849
  C         8.7983220698        5.0971297504        8.9028680948
  C         8.0988651177        4.3081851715       10.9370224628
  C         9.2908457427        4.7548866865        7.6340409360
  C         9.7762586564        2.7236102316        6.5781750765
  H         9.5735509857        1.7769963868       10.7994847461
  H        10.1075549977        1.0135509161        9.2294259052
  C        11.3744373593        2.6298815237        9.8086508965
  S         8.2692721541        6.5527929010        9.6592785917
  C         7.8598224932        5.6614737409       11.1315057058
  H         8.0641685377        3.5890563301       11.7462088787
  C         9.7306209470        5.3187140182        6.4426981792
  H         9.4734462775        1.6823494143        6.6788161797
  C        10.1132799446        3.2852534551        5.3983015767
  H        11.2851509770        3.6734689837       10.1006749667
  H        11.7363102119        2.6474773975        8.7879347607
  C        12.3998116917        1.9256218649       10.7312102394
  C         7.5820121077        6.3821472869       12.4371289178
  C        10.1754579756        4.6306405991        5.3305027467
  H         9.7756143764        6.4056565286        6.4705691264
  C        10.5745728094        2.8835154388        4.1896549165
  H        13.3900390661        2.4566137398       10.5472956931
  H        12.6381767587        0.8824708841       10.4194302611
  C        12.0209871554        1.9223454482       12.2554912973
  C         7.5991304571        7.7787545223       12.6913450907
  C         7.2762432583        5.5379029935       13.5545613625
  C        10.5929003093        5.3198423410        4.0965276309
  C        10.8442173631        3.9592388686        3.3851439113
  S        10.8680812955        1.3456399699        3.4677140832
  H        11.3885804322        2.8789205433       12.4448528005
  H        11.4359026464        1.0376268130       12.2962906156
  C        13.1479021093        1.9525590766       13.1670813926
  N         7.6272884305        8.7606445991       11.7101794748
  C         7.4602114368        8.2913305610       13.9703708681
  C         7.1021674977        6.0645870210       14.8573478807
  H         7.2886783254        4.4284439517       13.5410225552
  C        11.9228139218        6.0591890838        4.3003155398
  C         9.6282342642        6.2128570874        3.2860835675
  C        11.2237977929        3.5277525712        2.0896864241
  C        11.2831240309        2.1663085859        1.9773838982
  H        13.9630522688        2.5120572253       12.7957944288
  H        13.5211111124        0.8892629972       13.2127438654
  C        12.7150505125        2.4162718265       14.5540174527
  S         7.9010446323       10.1447063460       12.3863850587
  N         7.5750945737        9.7212822741       13.9441570523
  C         7.2303383558        7.5066221376       15.1210753972
  H         6.9865217205        5.3763673153       15.6577202109
  H        11.5255580863        6.8608826400        4.8672113483
  H        12.2150742761        6.3502258652        3.3134485841
  C        13.1112621961        5.3056232730        4.9365499966
  H         9.4751770368        7.2232777751        3.8135099714
  H        10.1159580213        6.4190593518        2.4187566354
  C         8.3551025209        5.5063743083        2.7144498048
  H        11.4537998879        4.3388034986        1.2870904484
  C        11.5584794394        1.3926226154        0.7375011320
  H        12.7373456214        3.5080216820       14.4762899189
  H        11.6734220559        2.1144234526       14.6517637686
  C        13.6049903387        2.1014393539       15.7126212641
  C         7.0066526891        8.1977713802       16.3212040861
  H        12.7665993958        4.5870951256        5.6911980854
  H        13.5162692372        4.6640742264        4.1077398259
  C        14.2285410921        6.0626235886        5.4025033049
  H         7.8341847722        4.6954789096        3.3164304518
  H         8.7160738994        5.0487131816        1.8687821571
  C         7.2761533311        6.5135336897        2.2525142961
  C        11.7314448446       -0.0042030858        0.5789865806
  C        11.6848360686        2.2088539491       -0.4906076275
  H        14.4820807641        2.6833014718       15.4789973898
  H        13.8438021126        1.0408253351       15.6999112889
  C        12.8735101257        2.3395867826       17.0296235089
  H         7.1307511375        9.3223729469       16.3340858839
  C         6.7345373837        7.8252216176       17.6079868585
  H        13.9448361205        6.7087496911        6.1881818597
  H        14.5461979612        6.6764967117        4.5519290892
  C        15.4203119275        5.1426098918        5.6114187350
  H         6.8617145835        7.3141768118        2.8745275201
  H         7.7865092098        7.1243983787        1.4803216000
  C         6.2082709775        5.7147664093        1.5152065595
  N        11.5103015625       -0.9462339308        1.6064627406
  C        12.0485072439       -0.5550516717       -0.6483910227
  C        11.9080655508        1.7533933813       -1.6940800050
  H        11.5450410999        3.2676356197       -0.2915851410
  H        11.8506101568        2.0368685111       17.0932638531
  H        13.0309367275        3.3371991269       17.4597475056
  H        13.5617278094        1.6649496522       17.7345979304
  S         6.5078906131        6.1737528700       18.0881784028
  C         6.7169056442        8.8826026566       18.6500937705
  H        15.0637672863        4.3088524521        6.2359702787
  H        15.8815056173        4.8211784915        4.6830824014
  C        16.4808771859        5.9659239634        6.2592172686
  H         5.7598457021        4.8602458278        2.0867609522
  H         6.5659811801        5.1724269500        0.6566153710
  C         4.9699092430        6.5957313816        1.1768476285
  S        11.4382946835       -2.3906205972        0.8947395032
  N        12.0281498430       -1.9119999153       -0.6149307712
  C        12.2503692850        0.2284668861       -1.7911672879
  H        11.8193520076        2.4864863101       -2.5287270935
  C         6.3074364656        6.8865088517       19.6701847913
  N         6.3316108920        8.2835347382       19.7657059704
  O         6.7931466997       10.1170138132       18.5038400914
  H        16.8337399051        6.5310331890        5.3402012953
  H        16.1619791568        6.7540327343        6.9408665610
  C        17.6878751483        5.0741195199        6.7417551821
  H         5.3573334096        7.5369930668        0.6767550243
  H         4.2929008031        6.0950745365        0.2973009899
  C         4.0428149721        7.1208294730        2.2966412639
  C        12.5950412305       -0.5634976063       -2.9332857505
  S         6.0730896195        6.0326151598       21.1867073062
  C         6.1595304854        8.9622981243       21.0027653618
  H        17.4484462427        4.9964175615        7.8083894159
  H        17.6724227134        4.1287338777        6.3362778038
  C        18.9675123308        5.8632185433        6.5556564997
  H         4.7292874559        7.3688112788        3.1045152444
  H         3.5473848537        6.1951062309        2.5268463646
  C         3.2145835720        8.2908789420        1.7536805277
  H        12.1664987344       -1.6141740505       -2.9667003311
  C        13.0597259750       -0.1142334819       -4.2272782279
  H         5.4034247602        8.5307503756       21.5581763026
  H         5.8332233241        9.9759143184       20.8707754987
  C         7.5025144092        8.9600647328       21.8312704487
  H        19.5745074242        5.9359985367        7.4635281662
  H        18.6523762977        6.8004834473        6.2422469895
  C        19.8001492745        5.1908774005        5.4463687216
  H         3.0479177602        8.0652951666        0.7525211817
  H         2.2723167660        8.1628375532        2.1909912969
  C         3.8893573670        9.6208650989        1.9178446198
  S        13.5058654157        1.5398257709       -4.6356435892
  C        13.1035637821       -1.1404419596       -5.3286276523
  H         8.3550644353        9.4910465046       21.5081196791
  H         7.8284150551        7.9336211050       22.2107552313
  H         6.9876338158        9.5910539857       22.6012415055
  H        19.1931112133        5.4391374299        4.6091621344
  H        20.8186642946        5.6692635156        5.3554039899
  H        19.8740258134        4.1143534553        5.7542821798
  H         4.5064800014        9.6776372802        2.8204124058
  H         4.4521224464        9.7876447900        1.0313030267
  H         3.0111297750       10.3315346388        2.0284083853
  C        13.9096029621        0.8871161659       -6.2714627897
  N        13.7418751453       -0.5033891189       -6.3760760580
  O        13.0177951676       -2.3442160972       -5.0780541471
  S        14.6736837997        1.8517322985       -7.5292855198
  C        13.9803628967       -1.2363430806       -7.6002637995
  H        14.1277618543       -2.3782491301       -7.4261229700
  H        14.8515371512       -0.7391081126       -8.0423523195
  C        12.8606441092       -1.1330230049       -8.6021308946
  H        12.7773423439       -0.3368636129       -9.3868785705
  H        11.9452250912       -1.1235841118       -8.1035506921
  H        12.7611492756       -1.9719700922       -9.2086111369
