352
 i =    94900, time =    47450.000, E =        99.2118741142
  H        12.2327668095        6.5338769826       32.7864598063
  C        11.6960479076        5.6598741645       32.6954622321
  H        12.4077519683        4.9648724632       32.2171748690
  C        10.5393913356        5.8000431726       31.7404083956
  C        11.3621323844        5.1108478631       34.1435410594
  C        11.0936849659        6.0814748369       30.3544774858
  H         9.8498971619        4.9601019991       31.8797311819
  H        10.0428793333        6.6621606448       32.0032916692
  H        12.2023646130        4.9303720607       34.8321068436
  H        10.7083971067        5.7632963306       34.6671922246
  H        10.7472055432        4.2010047847       34.0529391656
  C        10.0767091342        5.8915669852       29.1890976763
  H        12.0009430860        5.4628077380       30.1133436408
  H        11.3399483352        7.1529538253       30.3755236588
  C        10.6312543672        5.9140084212       27.7378193755
  H         9.5944053050        4.9187624055       29.2744404239
  H         9.3049423335        6.6469574818       29.3550109413
  C         9.6754684951        5.2812668160       26.7054152517
  H        11.5970750593        5.3419357668       27.6779709034
  H        10.7823111523        6.9321937357       27.3864186812
  C         8.4280567725        6.1403878258       26.4904453894
  H        10.2852499423        5.0714569000       25.8104713057
  H         9.5749112616        4.2182364005       27.1088682709
  C         7.2289322506        5.4258729541       25.7792224102
  H         8.1576696882        6.7536769087       27.3642699107
  H         8.6210218954        6.9659546363       25.8050002150
  C         6.8642346544        4.1539927865       26.4346851399
  C         7.6661782340        4.6863337717       24.5186637324
  C         6.0473150785        6.3928948650       25.5218679232
  C         7.1021168846        3.0286538134       25.6794271588
  C         6.3706921055        3.7432354313       27.6597588862
  C         7.6616666222        3.3381773624       24.4780630997
  C         8.1474767467        5.1836777784       23.3581077981
  H         6.3840747442        6.9531904127       24.6677955527
  H         5.9642151926        7.0150472537       26.4085963157
  C         4.7792668488        5.6223175151       25.2935617235
  S         6.4440527250        1.5750910609       26.2823124343
  C         6.2272168747        2.3962269480       27.7781677666
  H         6.0663548445        4.4755594511       28.3680675861
  C         7.9628385974        2.5827117086       23.3601351987
  H         8.3551799805        6.2646522101       23.3695614979
  C         8.4490627781        4.5465058302       22.1966303797
  H         4.8172359885        4.9410974096       24.4312879919
  H         4.5108327115        5.0322408258       26.1736090445
  C         3.5959601092        6.5344675305       25.1196210252
  C         5.7966502028        1.6884592603       29.0842606288
  C         8.3385596905        3.1932270648       22.0839875067
  H         8.0844553873        1.5230764087       23.3607940885
  C         8.8466897159        4.9934347808       20.9563083397
  H         2.9451444847        6.1103105005       24.3913060623
  H         3.8983835443        7.4999814643       24.6943977325
  C         2.7685223552        6.7359048881       26.4426582066
  C         5.8319494116        0.2655198636       29.3244445430
  C         5.4183594233        2.5444056542       30.2524676057
  C         8.7220023187        2.5401627277       20.7459404499
  C         8.9435246157        3.9208853782       20.1107037311
  S         9.0164385806        6.5395487341       20.1885713955
  H         2.1431261703        7.6196868753       26.3844670604
  H         3.4458891073        7.0434929368       27.2391980735
  C         2.0547037436        5.4751440310       26.9299112387
  N         6.1764094653       -0.6467768599       28.3029587258
  C         5.5899269142       -0.3122517806       30.5515476822
  C         5.0321923422        1.9236883716       31.4467746075
  H         5.3545907995        3.6137478369       30.2134712351
  C         7.6227819289        1.7892005298       19.9852156094
  C        10.0375132808        1.6505258985       20.9749296208
  C         9.2158384506        4.3323207921       18.7558053153
  C         9.4942554266        5.6646432085       18.7078456242
  H         1.1426475708        5.2815521327       26.3522694800
  H         2.6992051513        4.5368851065       26.7472832875
  C         1.7320292203        5.4866511533       28.4297669864
  S         6.2014758960       -2.1149243998       28.9812093258
  N         5.7297635784       -1.6427146497       30.4491004024
  C         5.1740752723        0.3885913016       31.6602485657
  H         4.6649582139        2.5789559514       32.1907373737
  H         7.1609506255        0.9575263648       20.4882320018
  H         8.0642766724        1.3701662537       19.1327152692
  C         6.4582632744        2.6663936584       19.4938047814
  H        10.3009114633        1.1946404078       20.0157401396
  H         9.8625035795        0.8699813599       21.7069778695
  C        11.2490719847        2.4687266398       21.3655931538
  H         9.2579180625        3.6106385551       17.9588435539
  C         9.9338370181        6.3640250192       17.4811730043
  H         0.9966636812        4.7972332711       28.7604118750
  H         1.3812250647        6.4989028674       28.6187120244
  C         3.0033586333        5.1770066213       29.2829090908
  C         4.8800767990       -0.2860027520       32.8842512692
  H         6.8066138345        3.4598606300       18.7837915212
  H         5.9450772553        3.1951357475       20.3320483913
  C         5.4046890972        1.6913971308       18.9593001534
  H        11.1632323622        3.0038925317       22.3444997046
  H        11.4354971768        3.1699633657       20.6520655946
  C        12.5100127232        1.6754449221       21.4584991248
  C         9.9844338465        7.7849759887       17.2884114172
  C        10.2188423170        5.5912545434       16.2764910154
  H         3.4240734188        4.1828344042       29.1166694499
  H         3.7792054815        5.8743582715       29.0961088673
  C         2.6693430784        5.2418680059       30.7834514353
  H         4.8945862039       -1.3579472278       32.6541869701
  C         4.5443513426        0.1339395682       34.1217410374
  H         5.1293846233        0.7793318144       19.5503557402
  H         5.7229844645        1.3042876588       17.9340631479
  C         4.1490960464        2.5107838191       18.7591798916
  H        12.2890772958        0.8267699801       22.1801969770
  H        12.9527235608        1.2496119583       20.5928643715
  C        13.5902285292        2.4546611840       22.1027303072
  N         9.7581596133        8.7305686313       18.2526419482
  C        10.3677834289        8.3958264176       16.0980680892
  C        10.5142974311        6.2550453062       15.0898315675
  H        10.2551323651        4.5507373644       16.3558099859
  H         1.6469619115        5.0926443432       30.9777320548
  H         3.2802148286        4.6155706134       31.3477099990
  H         2.9838542733        6.1836672284       31.1469634088
  S         4.4679388471        1.7528597205       34.6280727838
  C         4.3968212825       -0.8815664809       35.1305704439
  H         3.6693956224        2.7490644953       19.7353353645
  H         4.6020966459        3.4417997222       18.4499232889
  C         3.1037860727        1.8919970662       17.8034735666
  H        13.1594609151        3.1850220424       22.7654448643
  H        14.1988156532        3.0482128974       21.3696059994
  C        14.5706448138        1.6315754967       22.9128068014
  S         9.8778554948       10.2607106666       17.7521003598
  N        10.2764300128        9.7924885693       16.2184359247
  C        10.6476265485        7.7090869956       14.9563684080
  H        10.7356631881        5.7372703399       14.1722229959
  C         4.1821343416        1.0677364796       36.2433401155
  N         4.1328861885       -0.2830192809       36.3174512719
  O         4.4133832540       -2.0864286478       34.9383364609
  H         3.5975524067        1.4733323547       16.9463980274
  H         2.5042785561        2.6691227899       17.2639182921
  C         2.3096949222        0.6622779657       18.3931320704
  H        14.1511907544        1.0581166260       23.7593910856
  H        14.9978170177        0.8577669816       22.3090662444
  C        15.6933769915        2.5549890694       23.4682201367
  C        10.9245956692        8.4480925988       13.7504637408
  S         3.7587265786        2.0722227615       37.6464352444
  C         3.9721481378       -1.0810753072       37.5649018180
  H         2.3127358935        0.7290328532       19.4537458350
  H         1.3274859353        0.7605666170       17.9927456162
  C         2.9961161969       -0.7370505191       18.0277000478
  H        15.5323710561        2.5190625331       24.5210761247
  H        15.4602103734        3.5733298768       23.1334932309
  C        17.1374032293        2.2025385500       23.1200763387
  H        10.6791721016        9.4820640744       13.8170357077
  C        11.4204316566        8.0532380111       12.5083850347
  H         3.1757147387       -0.5873709208       38.1602321846
  H         3.4941236701       -2.0465099569       37.3321798740
  C         5.3646319257       -1.0939813851       38.2870672577
  H         4.0161887878       -0.6071009384       18.1187363404
  H         2.9236365836       -0.7521581015       16.9281933018
  C         2.2302000745       -1.8592214323       18.7327276608
  H        17.0480925623        1.3965608502       22.3735563150
  H        17.6959891930        3.1365223299       22.8138979335
  C        17.8515579097        1.6499406675       24.3214401340
  S        11.8841999021        6.4988402562       11.9901423981
  C        11.5754811452        9.0874525759       11.4619839422
  H         5.5504791584       -1.8669268283       39.0121281110
  H         6.1563642674       -1.1856826077       37.4949499316
  H         5.5262629340       -0.1137894337       38.7103905662
  H         2.4357675947       -2.0611706728       19.7423208731
  H         2.3754876287       -2.7251072569       18.1238171715
  H         1.1736563008       -1.5828875767       18.6271859013
  H        18.7902784118        1.2587015251       23.9770082434
  H        17.1592230189        0.8764489463       24.7327166021
  H        18.0730569053        2.3973659414       25.0858370007
  C        12.2056162050        7.2241282341       10.3497626078
  N        12.1425471843        8.5463226802       10.2975468503
  O        11.2687295866       10.2851165809       11.5227003574
  S        12.9429803333        6.4635846245        8.9050215503
  C        12.2971929917        9.3887556741        9.1108432470
  H        12.8536030528       10.1833546566        9.4819303619
  H        12.9214042571        8.9392970742        8.3369097390
  C        10.9290027004        9.5776365306        8.4569403351
  H        10.1483588989        8.8880995210        8.8972274575
  H        10.4920681821       10.5639808988        8.5196332092
  H        10.9837358693        9.4323551730        7.3880468954
  H         3.9285579370        1.4772331313       13.0507253661
  C         3.4277572045        2.3712565537       13.0548722406
  H         4.1936144289        3.0241558399       13.4019218766
  C         2.8691921115        2.7444359928       11.7045157543
  C         2.3640159305        2.3671332777       14.1494010670
  C         3.9565621520        2.7425733828       10.6545454103
  H         2.4496968368        3.7478090173       11.8508723658
  H         2.0740356022        1.9359061115       11.5704890055
  H         1.4954755988        2.7214894006       13.6479405250
  H         2.5874954760        3.1102219844       14.8919091910
  H         2.1861512579        1.4771625001       14.8057620887
  C         4.3733619724        1.3605702794       10.2106713345
  H         3.6317814967        3.2372622008        9.6710151121
  H         4.9007502240        3.1313253012       11.0284506204
  C         5.2546341442        1.4417623895        8.9021384743
  H         3.5361267664        0.6854333062        9.9600995491
  H         4.9703797290        0.9357292751       10.9068284907
  C         6.4562143285        2.4126065991        8.8353350462
  H         4.5259277028        1.6587403065        8.1229285279
  H         5.5085073111        0.4167201218        8.6663225964
  C         7.7024578368        1.6708414819        9.4201242826
  H         6.6389788400        2.6708652606        7.8492736523
  H         6.2486819866        3.4088318961        9.2334766530
  C         8.9143101152        2.6434767169        9.7360534268
  H         8.0529596227        0.9727035033        8.6732368897
  H         7.3854028080        1.1353429275       10.3679978374
  C         8.5098960538        4.0243160204       10.4349236835
  C         9.3197086213        3.3772974344        8.4878740932
  C        10.0326993776        1.9443091715       10.4593830954
  C         8.6595003379        5.1130545710        9.6422244182
  C         8.0617421292        4.3920523918       11.7026367671
  C         9.1544098356        4.6868047064        8.4061448457
  C         9.8344518200        2.7641562704        7.3199547318
  H         9.6836227360        1.4199697269       11.3565456412
  H        10.1716825872        1.0936861654        9.7718930876
  C        11.3539735072        2.7365477634       10.6174045571
  S         8.3352595747        6.6108487434       10.4719457283
  C         7.9014952761        5.7133620651       11.8798691346
  H         7.7978845560        3.6155645417       12.3878063747
  C         9.5734934872        5.3277657171        7.2463308734
  H         9.8675090380        1.6671126189        7.3702690556
  C        10.2881521085        3.4496242005        6.2263720465
  H        11.2759861166        3.7796205340       10.9853358490
  H        11.8059499452        2.9156673094        9.6437695543
  C        12.3498077879        2.0547025142       11.6119035957
  C         7.6494502264        6.4230505758       13.1730189512
  C        10.2008908189        4.7880405765        6.1445045762
  H         9.4214420790        6.3987721131        7.2701608591
  C        10.6504291677        3.0759318161        4.9643703177
  H        13.3261944194        2.1687009024       11.2032990536
  H        12.2003210496        1.0095818577       11.5503799727
  C        12.4791600729        2.3974160303       13.0390969538
  C         7.5573342305        7.8283907707       13.3579327809
  C         7.2988649693        5.6042867290       14.3854980167
  C        10.5828223771        5.5160138924        4.8879742663
  C        10.8886096055        4.1648351728        4.1765249327
  S        10.9452972450        1.5711790125        4.1612949736
  H        13.5326183799        2.5183502883       13.2828289073
  H        12.0305737715        3.4004143910       13.1039636230
  C        11.9086147139        1.4563754690       14.0732103032
  N         7.9960095175        8.8448056106       12.4585010391
  C         7.1282063037        8.3953754958       14.5348750533
  C         6.9659558527        6.2020376408       15.5427664858
  H         7.3860363614        4.4919932177       14.3755923559
  C        11.9135137884        6.3750238057        5.0033311750
  C         9.4026130488        6.3852201784        4.2177306977
  C        11.2467547527        3.7623287934        2.8436550540
  C        11.3510938276        2.4028019113        2.7644098505
  H        12.4967114192        0.5981292320       14.2416142686
  H        11.0172239228        1.0798571845       13.6961091539
  C        11.7723353185        2.1488296526       15.4649545836
  S         7.6780627532       10.2734418460       13.0813052472
  N         7.1992871768        9.7631743214       14.6066424777
  C         6.8968137304        7.6824890198       15.7334306176
  H         6.8924539922        5.5402310273       16.3819242667
  H        11.8870832775        7.2654527285        5.6612227257
  H        12.0468186663        6.9315483597        4.0395935554
  C        13.1245998294        5.6109595047        5.4191261848
  H         9.0066188766        7.1705121514        4.8542205043
  H         9.8167939010        6.9964626935        3.3695240359
  C         8.1844830237        5.6087288038        3.6492473967
  H        11.3134658062        4.4782478159        2.0458279727
  C        11.6438033130        1.6582257451        1.5284305842
  H        11.5321351342        3.1996953020       15.3185390368
  H        10.9139730990        1.6577357978       16.0422763628
  C        13.0391704847        2.0621845546       16.3312644523
  C         6.6417040606        8.4364944327       16.9631882499
  H        12.7697223449        5.0380245496        6.2482186545
  H        13.3660910663        4.8898107391        4.5773338744
  C        14.3382958979        6.4792490814        5.6283086097
  H         7.7026640684        5.2374125374        4.6086906023
  H         8.4990976343        4.7628394750        2.9579932584
  C         7.2300913636        6.6115426750        3.0254929333
  C        11.6955642469        0.2267553309        1.3793254874
  C        11.7927994096        2.4001042319        0.1915878623
  H        13.8509665378        2.7066055074       15.9965851919
  H        13.4354804829        1.0321721157       16.1611480779
  C        12.7214435625        2.2388655753       17.7999949941
  H         6.5392920254        9.4748110152       16.9204903946
  C         6.2975325890        8.0011453681       18.2169408175
  H        14.1508623034        7.0905049597        6.4777332253
  H        14.4746293042        7.2311962412        4.8573534679
  C        15.7344769969        5.8157277306        5.8639374228
  H         6.8815712457        7.2893359734        3.8038796592
  H         7.7179220942        7.2224311650        2.3339762940
  C         6.0562148726        5.9048758932        2.4249221953
  N        11.4680044846       -0.6961969829        2.3649939632
  C        11.9046950869       -0.3656843919        0.1464380584
  C        12.0542433140        1.8594568554       -1.0187350571
  H        11.6173558404        3.4785304102        0.2093877819
  H        12.3911021148        1.2069265806       18.2672497036
  H        11.9040749252        2.9720150602       18.0127650005
  H        13.5943381359        2.5620807378       18.3664232961
  S         5.8763865618        6.3569365845       18.7130166169
  C         6.2716460407        8.9840837033       19.3148667486
  H        15.6447311770        4.8531026525        6.2669203457
  H        16.1531098297        5.5612773582        4.8332561273
  C        16.7466038229        6.4890204335        6.7891230705
  H         5.9511891060        4.9607968607        2.9600031502
  H         6.1963774400        5.5087789150        1.5011545653
  C         4.7273855851        6.7194166704        2.4173787905
  S        11.4345941888       -2.1536496676        1.6936129288
  N        12.0616115110       -1.6970115596        0.2992538535
  C        12.1423930914        0.3438481150       -1.0969551275
  H        12.0071957964        2.4568632401       -1.9103268489
  C         5.8617124758        7.0342232918       20.3196468972
  N         5.9732364477        8.3802875323       20.4992681524
  O         6.3375501726       10.2077391433       19.1745379040
  H        17.2016373649        7.3232385349        6.2107130524
  H        16.1680207977        6.9092482835        7.6110865392
  C        17.7542409007        5.5220844749        7.3453341886
  H         3.8666647565        6.0110032633        2.4594884176
  H         4.6910113239        7.3048564057        3.3161686160
  C         4.5601642484        7.6124296738        1.1851956347
  C        12.5430809877       -0.3865725562       -2.2087386067
  S         5.0483918555        6.1781630607       21.6635926556
  C         6.0311715180        9.0917409847       21.7953019699
  H        17.2591580655        5.2097627215        8.3001174539
  H        17.8762632275        4.7040660418        6.6828962534
  C        19.1700102737        6.1303281396        7.6768411655
  H         4.5329633245        6.9363501737        0.3111658533
  H         5.3412517007        8.3240164071        1.0670039750
  C         3.2388735828        8.4153613746        1.3036919894
  H        12.6261792195       -1.4659425016       -2.1098031410
  C        12.9710122158        0.0078630280       -3.4127084876
  H         5.4669219959        8.6314399510       22.6205067951
  H         5.4646848948       10.0519096520       21.5560215375
  C         7.4391892957        9.3388699298       22.3029679757
  H        19.7324423836        5.5919741348        8.5041787478
  H        19.0853162379        7.1703371484        8.0365192806
  C        20.0012353558        6.2383604533        6.4273774198
  H         3.2148352896        8.8142260802        0.3239037279
  H         2.4095390061        7.8003787355        1.5285392238
  C         3.4076327543        9.5594456033        2.3311404809
  S        13.4400647016        1.6301494893       -3.8547671876
  C        13.2596021964       -1.0519564232       -4.4618482926
  H         7.8609863755        8.6720374161       22.9724304844
  H         7.4776411016       10.1566504020       23.0453883030
  H         8.1034718709        9.5060634239       21.4461493682
  H        20.9109857642        6.7792174092        6.6667008656
  H        20.3237994609        5.3164058372        5.9780467603
  H        19.4751267830        6.8112320048        5.6777631847
  H         4.4293237459        9.8596909160        2.4903670311
  H         2.8468432660       10.4157013570        1.9243694651
  H         3.0144323058        9.2252197722        3.2802817626
  C        13.8950074870        0.9229997684       -5.4543774534
  N        13.8086532712       -0.4463192755       -5.5047573622
  O        13.0592129518       -2.2535423562       -4.3295157186
  S        14.3253880469        1.7843725023       -6.9521212103
  C        14.1919865120       -1.2324868182       -6.7641675532
  H        14.5297822268       -2.1879422690       -6.4118211082
  H        15.0605803839       -0.7832840849       -7.2870601555
  C        13.0955472551       -1.3742117175       -7.8485061827
  H        13.1956493830       -0.5772508544       -8.5999515087
  H        12.1202022470       -1.3071899735       -7.4067289682
  H        13.1902667103       -2.3039320148       -8.2562476111
