352
 i =     3500, time =     1750.000, E =       195.7209150755
  H        12.0159799190        7.3141402003       31.6391780528
  C        11.5083465552        6.3208789617       31.7123163701
  H        12.2807502775        5.6619727580       31.5099057258
  C        10.3287839407        6.1377930083       30.7993872185
  C        10.9905345839        6.1105145947       33.2180646844
  C        10.7084435899        5.0040348458       29.7902434090
  H         9.3310456934        5.8872177255       31.3436592883
  H         9.9203440338        7.0827004601       30.2645957802
  H        10.3948578041        6.9765782929       33.4181021211
  H        10.3919463424        5.1345642983       33.1861884660
  H        11.8471559276        6.1711627331       33.8450509797
  C         9.7523786164        4.8448943042       28.6675219117
  H        10.9520861719        3.9576699620       30.2269841368
  H        11.6210058825        5.3203017242       29.4122503420
  C        10.3643687512        5.2059862298       27.3007182003
  H         9.0975981778        3.9700090455       28.4937974770
  H         8.8668428358        5.6831452772       28.8808578169
  C         9.4731359511        4.6345195567       26.1260037913
  H        11.2393453600        4.5317978614       27.1713051572
  H        10.7164968872        6.2544498604       27.1820910727
  C         8.1572312239        5.4216182013       25.8503318888
  H        10.1051273841        4.4604123966       25.2595934959
  H         9.1815074875        3.5371809224       26.3278119720
  C         6.9506777476        4.7372125051       25.2218487299
  H         7.8651512318        5.8977258953       26.7430879533
  H         8.5244507888        6.1726872142       25.2201051692
  C         6.6694957512        3.3577327840       25.8819982463
  C         7.4772580688        3.9601808167       23.9494089786
  C         5.7485778722        5.5943708726       25.0144567746
  C         6.8574311254        2.2243156942       25.0828761117
  C         6.4101701717        2.9901621166       27.1702224988
  C         7.5035415298        2.5918185097       23.8860686972
  C         8.0066728889        4.6056394243       22.8138486080
  H         6.2440058316        6.3698949817       24.3243282359
  H         5.6033090781        6.2720400882       25.8620883150
  C         4.4882847359        4.8620314271       24.5465114072
  S         6.6406502215        0.7132857691       25.8964522067
  C         6.2194160471        1.6261620826       27.3321234873
  H         6.1003213488        3.8694382668       27.8144707838
  C         8.0171186342        2.0563940781       22.7975796853
  H         8.1536162210        5.6956743997       22.7247604194
  C         8.4313311603        4.0259225730       21.7068425236
  H         4.5073760613        4.3809445190       23.6547300889
  H         4.2452643189        4.1415867287       25.3409118913
  C         3.3000044277        5.7152205289       24.4977538057
  C         5.8013300039        1.0246453224       28.6697803185
  C         8.4587568126        2.6679654014       21.6335578351
  H         8.1573882678        0.9674164485       22.7662374309
  C         8.9218278948        4.3541942344       20.4760355689
  H         2.4958658952        5.2369093382       23.8571508149
  H         3.3445562691        6.6627166837       23.9921387891
  C         2.6175568732        6.0284447611       25.8918165030
  C         5.7792596816       -0.3104397269       29.0229989934
  C         5.3744113332        2.0081052591       29.7946660038
  C         8.9113996864        2.0015187344       20.4458009014
  C         9.2305425948        3.2926516363       19.7043909055
  S         9.0614213561        5.9503133451       19.6993136963
  H         1.8750570815        6.7671615367       25.7191771066
  H         3.1820862645        6.4391112770       26.6583374501
  C         1.7371745700        4.8755341538       26.4932901996
  N         6.1696911740       -1.3218011052       28.2016409585
  C         5.6053135561       -0.7519405110       30.3335865570
  C         5.0921889788        1.4748393499       30.9557604260
  H         5.4306953383        3.0219543227       29.6589494653
  C         7.8201393216        1.1383950272       19.7239064746
  C        10.1943351506        1.0756258067       20.5023718573
  C         9.5793808989        3.7359236672       18.3740129241
  C         9.5427300414        5.1121076516       18.1680175250
  H         0.9554326637        4.9810242276       25.7515044017
  H         2.2064750385        3.8667406590       26.3598106677
  C         1.2274253565        5.2864066943       27.8213149188
  S         6.0848952947       -2.7628619355       29.0653916351
  N         5.6287584446       -2.1874520030       30.4596536854
  C         5.2846188527        0.0080891513       31.4330629007
  H         4.7822984283        2.1413975075       31.7191815336
  H         7.6600638230        0.2388856511       20.4214275574
  H         8.1833934881        0.7078937884       18.7695905156
  C         6.5796405805        1.9742860482       19.2954352480
  H        10.4596045138        0.9948429503       19.4608618290
  H         9.8581942066        0.1507133153       20.9389215697
  C        11.2927481445        1.8757280966       21.1533855011
  H         9.6569065735        2.9149536747       17.5650762395
  C         9.8722985861        5.8951300396       16.9762207371
  H         0.5089060087        4.5369736909       28.0783767702
  H         0.6000468296        6.1263801029       27.6970378471
  C         2.1183177672        5.3097829038       29.0080965732
  C         5.0903258641       -0.5934418920       32.7267594297
  H         6.8544462518        2.8064328539       18.6886490956
  H         6.1332667719        2.3376280286       20.1880326526
  C         5.5426494864        1.1968864585       18.4558760165
  H        11.0924015062        2.2661628177       22.1954870484
  H        11.6502475675        2.7078889374       20.5824649579
  C        12.6844192542        1.0915179948       21.1588580969
  C         9.8659009408        7.3392720403       16.8506840617
  C        10.3089990564        5.1037679694       15.7614579053
  H         2.7721912763        4.4584828126       29.0689976073
  H         2.9724732699        5.9852720907       28.9746491093
  C         1.3040363029        5.4902543693       30.3246952523
  H         5.1322842685       -1.5991897153       32.7284120494
  C         4.7825665432       -0.0884552566       34.0034744397
  H         5.3049069028        0.1927121445       18.6547109492
  H         6.2150365321        1.0439726783       17.5264475235
  C         4.2103561308        1.8409740227       18.0535654719
  H        12.5016362094        0.2472282694       21.8408627976
  H        13.0752085934        0.8235359153       20.1578982335
  C        13.6447617663        2.0457563204       21.7402976596
  N         9.4744582872        8.2104935275       17.9130920775
  C        10.1285406452        7.9902748263       15.6984225153
  C        10.5485007359        5.7832649617       14.6508111095
  H        10.2245552988        4.0467825276       15.6858836889
  H         0.4137698378        4.9181132843       30.3795708761
  H         1.9091091022        5.1113256119       31.1595272950
  H         0.9531041802        6.5145401521       30.5484759817
  S         4.4320403155        1.5824999885       34.3294754541
  C         4.6623739976       -0.9763842304       35.1489455812
  H         4.1171177971        2.8103611661       18.6422481245
  H         4.2179492752        1.9353342138       16.9577309213
  C         2.8272209216        0.9446641417       18.4266122323
  H        13.2594781656        2.5029260585       22.6327396462
  H        13.8736210217        2.8264890932       20.9993066238
  C        14.8795406411        1.2480383717       22.2936794718
  S         9.5420161289        9.6904943287       17.3532278924
  N        10.0602306107        9.3987774616       15.8337023464
  C        10.5178055931        7.3238487733       14.5315719754
  H        10.7085228580        5.2096167173       13.6967617209
  C         4.2162487714        1.1069313419       36.0192745414
  N         4.2837496938       -0.2504475628       36.1826525486
  O         4.8185732984       -2.1795178542       35.0308559666
  H         1.9350504874        1.5471493048       18.4901623689
  H         3.0703472658        0.7362284364       19.5090695094
  C         2.7359068771       -0.2402328654       17.5091683421
  H        14.4837087041        0.4631872786       22.9840746710
  H        15.3845742352        0.6548981476       21.5437353217
  C        15.6409164485        2.2165610398       23.2212871244
  C        10.8283252326        8.1333147068       13.3881043629
  S         3.6746511399        2.0202870342       37.3872752710
  C         4.0049362533       -0.9180701620       37.3827247911
  H         2.0009435794       -0.2241732405       16.7256638199
  H         3.6518629577       -0.4597288225       16.9297932281
  C         2.1081079355       -1.5032316418       18.2183500775
  H        14.9069870826        2.4480048484       23.9563148778
  H        15.8404458017        3.1130636812       22.6891463561
  C        16.9762383706        1.5936946526       23.7629746466
  H        10.2897504718        9.0777024262       13.4213868498
  C        11.4783140446        7.8747074445       12.2143693041
  H         3.2488934355       -0.4578442573       38.1077961301
  H         3.3175476760       -1.7794442887       37.2890354167
  C         5.2210947075       -1.3494341126       38.1554472221
  H         1.2721969512       -1.2564210471       18.8009642236
  H         2.8311280697       -1.9253729265       18.9408954451
  C         1.8958196393       -2.7481948333       17.2733405250
  H        17.3363527519        1.9868885157       24.7149171068
  H        16.8199547329        0.4894850039       23.9078335713
  C        18.0212986746        1.6893895986       22.4553507956
  S        12.1892727263        6.4465979863       11.7543108727
  C        11.5138636152        8.9941734469       11.2431224616
  H         6.0018747387       -0.6687985271       38.2214670771
  H         4.9757699844       -1.7162720820       39.1177730916
  H         5.6001301332       -2.2897506492       37.6080716701
  H         1.5697996556       -3.5230621229       17.9302736104
  H         2.8462524950       -3.1456674444       16.9028841834
  H         1.1077336852       -2.5253589409       16.5812924330
  H        17.9690360278        2.7135480661       22.2201342921
  H        17.8528804320        1.1301677919       21.5627911631
  H        19.1562979626        1.4434497847       22.7805570267
  C        12.4107806987        7.2336065426       10.1456283101
  N        12.0576017703        8.5565412810       10.0618135965
  O        11.1244415064       10.1123601886       11.4867794626
  S        12.9303773014        6.3475069939        8.7022972962
  C        12.1516691371        9.4188208966        8.8842783262
  H        12.2394161459       10.4320684560        9.1667476148
  H        13.1311429250        9.3191510535        8.3234667391
  C        10.8422247714        9.2291857804        7.9454462584
  H        10.1460162862        8.6610689876        8.5416949727
  H        10.7187539796       10.2333505462        7.5667923586
  H        11.1626933124        8.5679420878        7.0759890580
  H         4.2110367282        1.2108914717       12.5402313375
  C         3.7486395055        2.1578089374       12.3250808013
  H         4.4858832554        2.8821818905       12.3656824445
  C         2.9036484122        2.2130965733       11.0226261548
  C         2.9850077504        2.4023217620       13.6190016424
  C         3.6022703022        2.6244992881        9.7826718850
  H         1.8882152265        2.7197803384       11.1777542965
  H         2.3438517081        1.2218314251       10.8294480949
  H         2.2330054273        1.6339539860       13.7093157764
  H         2.4059868462        3.3236617657       13.5946578885
  H         3.7865130180        2.2438553036       14.3838727377
  C         4.5199779058        1.5457293831        9.3829037968
  H         2.9052356937        3.1143008198        9.0679999320
  H         4.2062303862        3.4938744537        9.7278230856
  C         5.4168923050        1.8936134231        8.1196360996
  H         4.0204141444        0.6575246741        9.0216596139
  H         5.1114927939        1.4288586536       10.2189561295
  C         6.6543687277        2.7058770595        8.2419956483
  H         4.7814287569        2.4792814131        7.5156425511
  H         5.6713145838        1.0091355440        7.5674377881
  C         7.7587582444        1.9528804288        8.9090576803
  H         6.9068042849        2.8472376617        7.2758309245
  H         6.5148351330        3.7009458002        8.8504306494
  C         9.0761881080        2.7716096250        8.9854379071
  H         8.1632564325        1.1550400474        8.2812591417
  H         7.4989890153        1.4203499334        9.8282473459
  C         8.9139047487        4.0899270301        9.7553633302
  C         9.4841837968        3.5262922825        7.7048052884
  C        10.1960524104        1.9135097340        9.6272877789
  C         9.0537536961        5.1973272309        8.9146602592
  C         8.4175664771        4.4254411492       11.0366400017
  C         9.4904212686        4.8491713246        7.6795348727
  C         9.7825184366        2.9676313731        6.4274369101
  H         9.8358772760        1.5258082012       10.6321279273
  H        10.4172302103        1.0307663043        8.8994510702
  C        11.4129796806        2.7769699927        9.9620626161
  S         8.5161343286        6.6777483212        9.6956349235
  C         8.1955975271        5.7927060318       11.1704631488
  H         8.2629400849        3.5706839034       11.7635978120
  C         9.8431173763        5.5424576363        6.4619133503
  H         9.9564234836        1.8817784064        6.2912643935
  C        10.1736433330        3.5917273271        5.3134315542
  H        11.2513147862        3.8172160475       10.3995081298
  H        11.7761114210        3.0736836654        9.0964539475
  C        12.4591733206        2.0152242254       10.7958200215
  C         7.6572401852        6.4746340264       12.3711630359
  C        10.2016910686        4.9324675229        5.2578588582
  H         9.8137601335        6.5943810062        6.4470363744
  C        10.6871471133        3.2449102449        4.0976801705
  H        13.3940985554        2.5444235280       10.7467701213
  H        12.7386500990        1.2082122482       10.2008676899
  C        12.0617459180        1.7040181766       12.1983535680
  C         7.7156031931        7.8263369657       12.6823334878
  C         7.1710657459        5.5994574173       13.4374405694
  C        10.6954582371        5.6373417309        4.0894168374
  C        10.9157873886        4.2977235860        3.3266715256
  S        11.0791324968        1.7934002386        3.3202511488
  H        11.3935938140        2.4787598196       12.6650742874
  H        11.5858491414        0.8324440634       12.4917273383
  C        13.1914956203        2.0112214295       13.2388027938
  N         8.0598553322        8.8035985487       11.7377414646
  C         7.4219423723        8.3094080887       13.9341391363
  C         6.9024446852        6.0567634166       14.6286020668
  H         7.0510848842        4.5577473581       13.3054903030
  C        11.9626246822        6.5202386470        4.2362759834
  C         9.5335897625        6.3318548228        3.3875221048
  C        11.2760554862        3.8935406864        2.0220195076
  C        11.4121985051        2.5958017236        1.9034539295
  H        13.3392868890        3.0341015935       13.2840023887
  H        14.0882315296        1.4687106432       13.0551486671
  C        12.7526462051        1.5108204320       14.6819593961
  S         7.9522538119       10.2663916128       12.4766369221
  N         7.3251513571        9.7457831913       13.9371140223
  C         7.0694967171        7.5261550586       15.0225486501
  H         6.6625572675        5.2363754114       15.3478148424
  H        11.7992385032        7.3723446822        4.8536502244
  H        12.1647290754        6.8658884025        3.1681004279
  C        13.2413308971        5.7341698873        4.5905507581
  H         9.3621406809        7.2740688226        3.9768465934
  H         9.8053664917        6.7432002433        2.4472523204
  C         8.1879077922        5.6650318360        3.1336340450
  H        11.3543250139        4.6219281964        1.2470715202
  C        11.8033976221        1.7946381261        0.6905472002
  H        11.8162827495        1.8623952779       15.0953761860
  H        12.8607839259        0.4530472762       14.7743064003
  C        13.8143535219        1.7085613124       15.7911446453
  C         6.7231128253        8.1417058744       16.2959090103
  H        12.9465486947        5.0121744748        5.4746510863
  H        13.6694179878        5.1586540996        3.7960000134
  C        14.3285319755        6.7435725574        5.0083214436
  H         7.5039597530        5.6840203087        3.9909232932
  H         8.2107669684        4.6111451280        2.6611247474
  C         7.3757980554        6.5146798953        2.0751150483
  C        11.8639697761        0.3858332266        0.5750959081
  C        12.0716923628        2.5423222684       -0.5541985500
  H        14.5368973564        2.3560074144       15.3704580687
  H        14.2501888134        0.7012343348       16.0023403611
  C        13.2345167706        2.2672113037       17.0636600889
  H         6.6190884765        9.2336425324       16.1703227727
  C         6.3126596408        7.5772768261       17.4627562884
  H        14.2247245832        7.2712885670        5.9500689484
  H        14.3736992490        7.5949146517        4.2424848853
  C        15.7372095345        6.1470066702        5.0341852187
  H         7.2539439657        7.3962952579        2.6262263305
  H         7.7810994442        6.6699423968        1.1601963313
  C         5.9836709203        5.8293476396        1.8079407256
  N        11.6373763082       -0.5377207250        1.5336084746
  C        12.1498134901       -0.3243463272       -0.6452135525
  C        12.4256228165        1.8106017034       -1.6871894892
  H        12.0994129880        3.6696486291       -0.6283242831
  H        12.4019923937        1.7425048721       17.5966894537
  H        12.7762270410        3.2045115005       16.8620210723
  H        14.1317759971        2.5426389053       17.7292522377
  S         5.9543172340        5.9634941690       17.7800516488
  C         6.2258407198        8.5106956360       18.6437536995
  H        15.7132735550        5.3915891814        4.2372265075
  H        16.4470512745        6.8256374882        4.6885209180
  C        16.0866642424        5.5336370854        6.4205036507
  H         5.8869906597        5.0258239392        2.5811161715
  H         6.0249463045        5.4620468300        0.7395333578
  C         4.7868906630        6.7303000506        1.6535927227
  S        11.7640724715       -2.0620746193        0.9616792167
  N        12.1084689890       -1.7060344992       -0.5701912361
  C        12.5378727588        0.3769561701       -1.8083633760
  H        12.5346291016        2.3844033063       -2.5257140227
  C         5.6350485132        6.4693845347       19.4729622974
  N         5.7913026156        7.8502606499       19.7237816863
  O         6.4830510390        9.7265701432       18.6577493390
  H        15.7507646001        6.3100537910        7.1054636407
  H        15.4118144407        4.7742215246        6.6809067492
  C        17.4413382287        5.0149714603        6.6610580691
  H         4.1663861966        6.3995764893        0.8152855617
  H         4.1957213987        6.6315632501        2.5958763652
  C         5.0104707205        8.1814930801        1.5263957905
  C        12.6730984562       -0.3778339216       -2.9398705771
  S         5.1176822119        5.3794518018       20.6585479804
  C         5.7216676949        8.5124416080       21.0735052120
  H        17.2429462182        4.3236246787        7.5340036062
  H        17.6498695134        4.4575811679        5.7165710661
  C        18.6486208477        5.9611295659        6.8706267677
  H         6.0571725472        8.3252887873        1.0882660770
  H         5.0934223936        8.6364103724        2.5151863521
  C         3.8883399575        8.8983425252        0.7547644040
  H        12.1894319884       -1.3256940467       -3.0257588741
  C        13.2587866930       -0.0528958557       -4.2009870099
  H         5.2282073257        7.7028552462       21.6740916565
  H         5.2151450998        9.4771149505       21.2458913817
  C         7.1491475553        8.6010008439       21.5354654226
  H        19.1982359990        5.4762300451        7.5749220534
  H        18.1116784293        6.8881972481        7.2833999092
  C        19.4084426887        6.2806756620        5.5619328059
  H         3.7911970956        8.6373731044       -0.2953102942
  H         2.9058439702        8.9765447044        1.3085341242
  C         4.2388173299       10.3947935524        0.5902777560
  S        13.9789442087        1.5001267399       -4.6236383167
  C        13.2214622601       -0.9954838426       -5.2546625598
  H         7.1511684220        8.7625713412       22.6024664070
  H         7.7085371294        9.2859752946       21.0369156316
  H         7.6426554824        7.5597689650       21.5103648904
  H        18.7598138230        6.9440334635        4.9575113921
  H        20.3604288581        6.6248124611        5.5721831593
  H        19.4300810138        5.3655049682        4.9905981765
  H         3.8622102706       11.0067479152        1.3739602598
  H         5.3045399453       10.4680288749        0.6152740324
  H         3.8641780353       10.7499464945       -0.3678197351
  C        14.2918573421        0.7315107959       -6.1946304607
  N        13.8458767157       -0.4914619736       -6.3954700397
  O        12.6997510234       -2.1807717528       -5.1660276848
  S        15.2204208692        1.4062097634       -7.5564737743
  C        13.9876507890       -1.3137958559       -7.5952787057
  H        13.6831735539       -2.3906377845       -7.4558244978
  H        15.0270499314       -1.3449411753       -7.7526925127
  C        13.2634241511       -0.9447691341       -8.8180200997
  H        12.3314886680       -0.5180331265       -8.6581816162
  H        13.1084262184       -1.7182514231       -9.4186098139
  H        13.9649295831       -0.4051850558       -9.3701881694
