352
 i =    70600, time =    35300.000, E =        98.9556239159
  H        11.4729461193        7.3023237444       32.4138297956
  C        11.5471589497        6.1997809443       32.4365058456
  H        12.6156499093        5.9620551084       32.2642545188
  C        10.5844983447        5.6143185414       31.4776820468
  C        11.2336474694        5.7919478121       33.8099283163
  C        10.5706199586        6.2090765455       30.0565136878
  H        10.8649636474        4.5679655925       31.5131920557
  H         9.5509200869        5.6049769419       31.8977795538
  H        11.9883302729        6.2599294014       34.4251961428
  H        10.2185460496        6.0049855669       34.0465794993
  H        11.3598597964        4.7236534093       33.9030361888
  C        10.3184814098        5.1027725302       29.0332811953
  H        11.4791688956        6.6362859769       29.7713092947
  H         9.8835823178        7.0044995388       29.9646629455
  C        10.8702693169        5.4475334063       27.6073386232
  H        10.8399174208        4.1835168371       29.3645979415
  H         9.2533941307        5.0377438579       28.8666447604
  C         9.8996288820        4.8906066755       26.4406516317
  H        11.8857140431        4.9713950128       27.5098002213
  H        11.0801343554        6.5828563607       27.5673126161
  C         8.7070581333        5.8015952603       26.1946449964
  H        10.3710544795        4.7931722394       25.5364062916
  H         9.7111492458        3.8307655433       26.6538153843
  C         7.6063704772        5.1254381481       25.3646527946
  H         8.2857007461        6.1009183670       27.1434242582
  H         8.9876869081        6.8067215024       25.7784353562
  C         7.1474224686        3.8033140994       25.8937558360
  C         8.1818034529        4.4621011063       24.0865599361
  C         6.4995848413        6.1635097231       24.9999643620
  C         7.4754790861        2.7355344092       25.0929643556
  C         6.7100768564        3.3813416598       27.1462699118
  C         8.1961472684        3.1407774235       23.9802644499
  C         8.5584056809        5.1307642461       22.8878946277
  H         6.9988553402        6.8460188530       24.3224024488
  H         6.1581475644        6.7194974617       25.8360270284
  C         5.2565223555        5.5818160418       24.2762013037
  S         7.2236377652        1.2024895364       25.8209622894
  C         6.6894002476        1.9871414136       27.2441233377
  H         6.5373936872        4.1352528323       27.9220451519
  C         8.6916525190        2.5653349765       22.8203457587
  H         8.4450855973        6.1996198235       22.8036312293
  C         8.9990868291        4.5315438605       21.7261091643
  H         5.4949932400        5.2303730305       23.2455291883
  H         5.0751864165        4.5570746544       24.7744717711
  C         3.9499251314        6.3985589654       24.1624935679
  C         6.1854414257        1.2335120766       28.4269718743
  C         9.0756081514        3.1807613068       21.6524338764
  H         8.5728462415        1.5035491175       22.8087753753
  C         9.4329428862        4.9716638902       20.4674524288
  H         3.2760220828        5.9092639891       23.4120716167
  H         4.1471027828        7.4458833941       23.7808139264
  C         3.2331786118        6.5736567013       25.5699192860
  C         6.1750977784       -0.1880090066       28.6633815877
  C         5.5061695979        2.0164437041       29.4747073355
  C         9.5061677803        2.5495725803       20.3562127799
  C         9.7309839546        3.8948811128       19.6960492471
  S         9.5668302922        6.5929920376       19.7813900693
  H         2.5536187718        7.4928015900       25.5021052450
  H         3.9627178637        6.8225231945       26.3439237309
  C         2.2668670481        5.4770663203       25.9658626392
  N         6.7437394064       -1.0837263068       27.7725128008
  C         5.7430615447       -0.7597223875       29.8328736292
  C         5.1636814619        1.4602935592       30.7257104046
  H         5.3477945116        3.0993161120       29.4132474227
  C         8.2581357120        1.8126853236       19.6813282809
  C        10.7620072670        1.6520088385       20.5438780221
  C        10.1042492105        4.3254219454       18.3898527179
  C        10.0156846348        5.7327714545       18.2993013157
  H         1.5922810970        5.3770756601       25.1982911638
  H         2.8802989788        4.5712900823       25.8817334657
  C         1.7263439091        5.5454129553       27.3983673074
  S         6.5636056729       -2.5790461705       28.4836259162
  N         5.9481950924       -2.1585066359       29.9290277612
  C         5.3706793135        0.0081343111       30.9768749867
  H         4.9215684944        2.1153038718       31.4981986760
  H         7.8492718060        1.0216821844       20.3005832579
  H         8.6354662962        1.5206837093       18.6631930137
  C         7.1013182229        2.7318918282       19.3659915565
  H        10.9407540262        0.9622173465       19.7130042644
  H        10.6651826142        1.1216084108       21.4378877136
  C        12.0034039860        2.4517901653       20.6946476014
  H        10.3201119980        3.5859562500       17.6149008749
  C        10.2146276229        6.5078740603       17.0285836836
  H         0.9563459506        4.7408367692       27.5647052560
  H         1.1191778282        6.4278615373       27.3274832573
  C         2.7065981279        5.4780275127       28.6141964623
  C         5.1343222230       -0.6180413803       32.2047581217
  H         7.3245429240        3.4734320917       18.5916288871
  H         6.8806389468        3.3119250838       20.2668630042
  C         5.7462904293        2.0305069999       19.0103842953
  H        11.7715791736        3.0027762693       21.5742447602
  H        12.2208731532        3.1771239588       19.9060871406
  C        13.2879912004        1.7025993263       21.0042052095
  C        10.2277520844        7.9242986244       16.8887182034
  C        10.5439677438        5.7718282897       15.7159612581
  H         3.0602785648        4.4440590789       28.7335109347
  H         3.5931642765        6.0869261623       28.4833062930
  C         1.9423074355        5.7709632993       29.9353426534
  H         5.2557255977       -1.7263462729       32.1448417129
  C         4.8687248535       -0.0909235294       33.4651343857
  H         5.0828065766        1.9477543778       19.9105676077
  H         6.0661958541        1.0075636742       18.6644301280
  C         5.0381290942        2.6660862722       17.8314863109
  H        13.1189825705        1.0421598332       21.8527942733
  H        13.4335504051        1.0444296369       20.1142545618
  C        14.4379156343        2.6520292377       21.1870487450
  N         9.8598827094        8.6822493650       17.9043504584
  C        10.3736845407        8.5932840175       15.6692536002
  C        10.7843285053        6.4430956519       14.5272359132
  H        10.3806357887        4.7271645336       15.6779811797
  H         1.0855793752        6.3350851699       29.6803404325
  H         1.5767048439        4.8624965694       30.4650349513
  H         2.5010164277        6.3633012134       30.6455353889
  S         4.6036116200        1.4813913563       33.9682484062
  C         4.7862414119       -1.1471371773       34.5708789467
  H         5.0163356495        3.7268651005       18.1118895378
  H         5.6255638820        2.5363158202       16.9128862978
  C         3.5143478410        2.2747817883       17.6765785729
  H        14.2784277250        3.6742360707       20.9680479739
  H        15.1093428729        2.3225276189       20.3422758207
  C        15.0825755697        2.4411265149       22.6169803280
  S        10.0038149242       10.2125143350       17.4817464416
  N        10.3395585326        9.9783426535       15.9221182036
  C        10.6859567416        7.9161709884       14.4558088659
  H        10.8552357279        5.9098662618       13.5815253001
  C         4.2569706146        0.8273846538       35.5544337525
  N         4.3593219022       -0.5125810625       35.6952994910
  O         5.1102372022       -2.2974170348       34.5171269898
  H         3.0684084379        2.8828015728       16.8750012184
  H         2.9622195766        2.5891474876       18.5815454827
  C         3.2338097966        0.8385334308       17.3345107709
  H        14.2743854763        2.3823779393       23.3844166669
  H        15.7005114695        1.5306156995       22.5427853618
  C        16.0913980444        3.5454773200       22.8825792122
  C        10.8807053524        8.7728276161       13.3282925023
  S         3.8360478522        1.8813025724       36.9179641573
  C         4.4301220199       -1.2545354767       36.9634747077
  H         2.7240583725        0.7659749519       16.4381954087
  H         4.0333902251        0.1927176800       17.2758731439
  C         2.3529907096        0.2136173613       18.3687307758
  H        16.3288857524        3.6093823042       23.9616768082
  H        15.5730185050        4.4896158804       22.7302151615
  C        17.2945597848        3.3546313391       22.0210549082
  H        10.4120555519        9.8031244434       13.3695083697
  C        11.5516940440        8.5051601398       12.1923416100
  H         3.7224656153       -0.8322426582       37.6949767820
  H         4.1293311491       -2.2768344451       36.8930624522
  C         5.8187726812       -1.1006239919       37.5662618603
  H         1.4974518088        0.8428600943       18.3903917075
  H         2.9011409916        0.3553667228       19.3179857961
  C         1.9673966083       -1.2202520519       17.9476147449
  H        17.0860701745        3.0962843040       21.0327741273
  H        17.9071114075        4.2298546033       21.9271591517
  C        18.3065615770        2.4090285369       22.6850342701
  S        12.3722622321        7.0942241668       11.7821129631
  C        11.5183145988        9.5781333799       11.1899774472
  H         6.0507323738       -2.0118910132       38.0707113877
  H         6.5667035335       -0.7800706415       36.9415223058
  H         5.7256086516       -0.3636239385       38.3457474034
  H         1.1939749824       -1.1635275427       17.1467660927
  H         1.5105733380       -1.8048412635       18.7859390031
  H         2.9309222827       -1.6490110378       17.5920781396
  H        19.3023503672        2.7406442595       22.3871475701
  H        18.0981527704        1.5209669421       22.2078990626
  H        18.3823640190        2.3544028195       23.7839773363
  C        12.7639671053        7.9073492794       10.2559993091
  N        12.3211836719        9.1933491140       10.1751434421
  O        11.0099064538       10.6508270284       11.3607559174
  S        13.7801212293        7.2972745855        8.9599642035
  C        12.4675874911       10.0931064184        9.0697418945
  H        12.5367811212       11.0878458369        9.5429676157
  H        13.4189606201        9.9260841361        8.5871933074
  C        11.4026006772        9.8354344713        8.1011290414
  H        10.4115548688       10.1351990797        8.4689273262
  H        11.6581015090       10.3455029677        7.1872382384
  H        11.2642411449        8.7980321282        7.8736816482
  H         4.2493026702        2.4311623456       12.1088591813
  C         3.6854167050        3.3503121536       12.2459405131
  H         4.4811992613        3.9943685024       12.6594152809
  C         3.3060565153        3.9068743944       10.8364988036
  C         2.4899073600        3.3269064566       13.1815400575
  C         4.4976392152        4.0169634846       10.0027308077
  H         2.9408552640        4.9075150827       10.9816629095
  H         2.6678285907        3.2649588123       10.2883983313
  H         2.3562717586        2.2196130143       13.3428010798
  H         1.5609114616        3.9181582408       12.7972912742
  H         2.8461115728        3.8307594395       14.0801212095
  C         4.7496992559        2.6839095155        9.2445482870
  H         4.2878534905        4.8333436085        9.3203017721
  H         5.3024905089        4.2973228804       10.7013662855
  C         5.5824019528        2.9694750938        7.9431236473
  H         3.8860384750        2.0291243565        9.0363459613
  H         5.4250814857        2.1590953783        9.9236797238
  C         6.9188452313        3.6777323808        8.1554801941
  H         5.0289160693        3.6763164464        7.3134972229
  H         5.6287456951        2.0975103687        7.3480593636
  C         8.1019698457        2.8625931766        8.7879198157
  H         7.3479173189        3.8356278538        7.1969983200
  H         6.8150774701        4.6681780169        8.5051517709
  C         9.4352702995        3.6376006085        8.8988575468
  H         8.1772278368        2.0053515080        8.0763236839
  H         7.8414035525        2.4904522773        9.8176596245
  C         9.0733750625        4.9660781668        9.5926697820
  C         9.9306894637        4.3254535067        7.6607362552
  C        10.4840321268        2.8583125036        9.7825467742
  C         9.3747090708        6.0309275809        8.8081014987
  C         8.5145427704        5.4011581995       10.7911470990
  C         9.7785371916        5.6752803054        7.5347923289
  C        10.4600686944        3.6764990531        6.5604739053
  H         9.9351170691        2.4236014734       10.6203305143
  H        10.6948878122        1.9559036629        9.1513055307
  C        11.6992475306        3.6630766799       10.0744980749
  S         9.0343182669        7.5755504480        9.4672179320
  C         8.4480420749        6.7471046183       10.9027783934
  H         8.2503790686        4.6161559892       11.4777411350
  C        10.1057032919        6.2922515129        6.3267162836
  H        10.7590005513        2.6384015779        6.6742833588
  C        10.7689359660        4.2633545216        5.3575478096
  H        11.5808581318        4.6019270459       10.6119783793
  H        12.0857526007        3.9199828530        9.0372930268
  C        12.7399669928        2.8061549479       10.7798803880
  C         7.9165478471        7.5154242273       12.0940179465
  C        10.6631887559        5.5902207982        5.1855544051
  H        10.0655929226        7.3721033158        6.2265545135
  C        11.2334536288        3.8544822050        4.1286882486
  H        13.6451918628        3.4060529521       10.8261334913
  H        12.9771713381        1.8621856116       10.3241858809
  C        12.3756984529        2.4836680983       12.2127778480
  C         7.8363333274        8.9044153906       12.3217314431
  C         7.5737742140        6.6151616548       13.2349785326
  C        11.2072137320        6.2469833786        3.9034372735
  C        11.4696474890        4.9152384199        3.2353208423
  S        11.4821174114        2.3247319304        3.3705466353
  H        11.5294100614        3.0399371191       12.5341230833
  H        12.0824907052        1.4770031312       12.2392315247
  C        13.5911552679        2.8258328533       13.1671672909
  N         8.0565365891        9.8583073564       11.3792331391
  C         7.4433240118        9.4166390283       13.5910424282
  C         7.1909125736        7.1322163015       14.4983054820
  H         7.5623382379        5.5627080842       13.1342086760
  C        12.5800754765        6.8481198742        4.1000795613
  C        10.2517841461        7.1554971408        3.2050292024
  C        11.8621148372        4.5066409374        1.9752903858
  C        11.8671903668        3.1160852443        1.8777907012
  H        13.3796338395        3.7738474558       13.5896246863
  H        14.5612074261        2.8557952230       12.7506142978
  C        13.7478266600        1.7966948118       14.2494715400
  S         8.1531936404       11.2323815265       12.1716632309
  N         7.5908661172       10.8400320630       13.6459234616
  C         7.1786059154        8.5923396211       14.7848786745
  H         6.9207735397        6.4611203362       15.2399439108
  H        12.3590124163        7.8491551627        4.3659545892
  H        13.0489180858        6.9237932986        3.1199193546
  C        13.5376974996        6.2537835449        5.0893942804
  H        10.0653539892        8.1261624483        3.6421337023
  H        10.6362234405        7.4865417723        2.2527298220
  C         8.9458971972        6.4719900799        2.9041646965
  H        12.0276821090        5.1659054048        1.2158076204
  C        12.1017460808        2.2700577400        0.6849417065
  H        13.8920567880        0.8530374861       13.7951213013
  H        14.7906628933        1.9559061718       14.6610314421
  C        12.6771580625        1.7395722429       15.4021657150
  C         6.9918692804        9.1584919168       16.0694341743
  H        13.1674943122        6.5223809238        6.0829326241
  H        13.5552988990        5.1972461360        5.0433651719
  C        14.9020186693        6.7238552847        4.8901766693
  H         8.4116737512        6.2625595762        3.8647153497
  H         9.1217321704        5.4709629533        2.4111122560
  C         8.0525234421        7.2491697068        1.9488544266
  C        12.2248986342        0.8393681970        0.5438717556
  C        12.1180879775        2.9569437226       -0.6308359327
  H        12.5982091114        0.7254033865       15.9027847361
  H        11.7046787419        1.8117743263       14.9616982610
  C        12.9077660698        2.7298649329       16.5754757775
  H         7.1256234613       10.2161712094       16.0999669781
  C         6.7200763363        8.4802201485       17.2642549739
  H        14.9520041373        7.7688508345        5.2960184250
  H        15.2833482184        6.7993735258        3.8708347095
  C        15.8838605596        5.9254470606        5.6346446512
  H         7.6917366750        8.2041317489        2.4657829401
  H         8.5724207032        7.4173556351        0.9859769608
  C         6.7745581688        6.5181767292        1.6149023375
  N        12.0552438674       -0.0004260714        1.6436828206
  C        12.4260201712        0.1901056067       -0.6405425921
  C        12.4259182322        2.3280446664       -1.8657869373
  H        11.9230503440        4.0009147509       -0.6951516208
  H        13.9456145279        2.9206408104       16.8295337869
  H        12.3924002941        2.3865003322       17.4264328341
  H        12.6614180724        3.6977753862       16.3253332449
  S         6.3910229885        6.8018923889       17.5597866244
  C         6.6985752846        9.3727987985       18.4149391887
  H        15.3335688969        5.3960672167        6.4343112443
  H        16.2517550685        5.1360220363        4.9879956203
  C        17.0874414367        6.7512545941        6.1032241814
  H         6.5001052758        5.8769139537        2.4623145965
  H         6.8257100871        5.8314873673        0.7626591612
  C         5.6106521716        7.4555862624        1.1556208606
  S        12.5373132830       -1.5044140564        1.1450352095
  N        12.6049328664       -1.1905110061       -0.4451022824
  C        12.6692461826        0.8195139473       -1.8987079615
  H        12.4884092352        2.8918969836       -2.7520299119
  C         6.5100083865        7.2673471457       19.2718899815
  N         6.4543917036        8.6258795018       19.5313437604
  O         6.7817130414       10.6108512820       18.3175829898
  H        17.5967974499        7.2145621836        5.2615393098
  H        16.7741925048        7.5840292439        6.7559995441
  C        18.0352038625        5.8530095904        6.8678309828
  H         5.8370596187        8.0777793578        0.2770980578
  H         4.9589217006        6.7936973617        0.6302285054
  C         4.7834259780        8.0225139985        2.3548752688
  C        12.9889136318        0.1342757285       -3.1122951823
  S         6.2972192953        6.1313171776       20.6518581504
  C         6.4158650293        9.1767846451       20.8709226947
  H        17.5435459584        5.3107863623        7.5814883372
  H        18.4296356367        5.0733621191        6.1628823937
  C        19.2829867315        6.5282689841        7.3148122997
  H         5.3889419364        8.2877912448        3.2110734653
  H         4.1829933352        7.1975106634        2.7803262051
  C         3.9019029001        9.2494688782        2.0151420546
  H        12.7226016005       -0.8907410933       -3.0212882000
  C        13.5264757581        0.4191873376       -4.3629363269
  H         5.9130658978        8.5735750773       21.6196739349
  H         5.9224414853       10.1342390732       20.9368428125
  C         7.8209688196        9.3826842795       21.4122054753
  H        19.6593142005        5.7956878889        8.1022370840
  H        19.0397403878        7.4511930297        7.8791829373
  C        20.3950166481        6.5944346178        6.1602423014
  H         3.1844618902        8.9332712940        1.3198237237
  H         3.3544100835        9.6216645935        2.8392044461
  C         4.6735831519       10.4956040067        1.5263177798
  S        14.0765881320        2.0260773326       -4.8615083893
  C        13.5366710535       -0.5891371922       -5.5005336010
  H         8.5591829697        9.2180961336       20.6006843577
  H         7.9715891762        8.6979844404       22.2777542229
  H         7.9243739242       10.3909915314       21.7681671220
  H        20.8646677339        5.6480545539        5.9235982244
  H        20.0250611032        7.1347198161        5.3054408008
  H        21.2096400322        7.1843267686        6.4573614702
  H         5.6867127902       10.4013383215        1.8571531714
  H         4.6653189489       10.4484199610        0.4538628310
  H         4.2415196539       11.4084610785        1.8956193463
  C        14.5496719348        1.2628871196       -6.4576549517
  N        14.2531957330       -0.0283280058       -6.5174331447
  O        13.1989920001       -1.7495411656       -5.3433950296
  S        15.1200415722        2.0832756411       -7.8063945736
  C        14.3878130422       -0.8977104543       -7.6894177450
  H        14.5387467537       -1.8999118972       -7.4016849334
  H        15.2380735118       -0.5569293589       -8.3287030401
  C        13.1485795784       -1.0019879042       -8.4998048096
  H        12.6622205381       -1.9523691358       -8.7798801736
  H        13.4662557191       -0.6617743042       -9.4486668553
  H        12.3545627485       -0.3675542604       -8.1874589467
