352
 i =   111900, time =    55950.000, E =        98.9045136166
  H        10.2951775744        4.6437573368       31.8243158472
  C        10.3628096370        5.7342371152       32.0718691912
  H         9.4387878866        5.9390303393       32.5905749224
  C        10.3847518086        6.6284692687       30.8236054002
  C        11.4461364859        5.8895261442       33.1916229424
  C         9.7633108838        5.9345944575       29.6639193473
  H         9.8979853462        7.5969075303       31.0520003598
  H        11.4219290315        6.8634297669       30.5890305874
  H        12.4286328416        5.9626789666       32.6739202411
  H        11.2461992402        6.6820112823       33.8126438542
  H        11.4452720569        4.9784339039       33.8577884645
  C        10.7298032342        5.0300585002       28.9316837333
  H         9.3371297904        6.6969705280       29.0235128152
  H         8.7957198144        5.4450912875       29.9353182425
  C        10.9737080246        5.1711828308       27.4504079085
  H        11.6931726195        5.3954509600       29.2976824486
  H        10.6436142780        4.0103706641       29.2911241966
  C         9.7433996138        4.7102168168       26.6605646962
  H        11.8067386272        4.6042162104       27.1575377287
  H        11.0781050625        6.2129327869       27.2196349293
  C         8.8050708145        5.8596748071       26.1658768785
  H        10.0735508830        4.0681357759       25.8285944821
  H         9.2185906508        3.9210965487       27.1978918428
  C         7.5260718106        5.3600233760       25.3775389615
  H         8.4295120282        6.3308440939       27.0588646261
  H         9.3934862064        6.5222735500       25.5066348191
  C         7.0086980493        3.9905500566       25.9292963592
  C         7.8268874603        4.7082045371       24.0994673176
  C         6.3557972097        6.3555985247       25.3725958793
  C         7.2560561193        2.8757399528       25.1712461341
  C         6.4646133868        3.5713472442       27.1315167850
  C         7.7132409213        3.3415738646       23.9292605971
  C         8.2106844357        5.3059934553       22.8968292553
  H         6.4547755855        7.3589397895       24.8964113332
  H         6.2500547905        6.6364209733       26.4174562310
  C         5.0475952538        5.7968258637       24.8372928639
  S         6.7982019305        1.4009174276       25.9441323947
  C         6.2666170959        2.2232851691       27.2769545087
  H         6.4206380618        4.3307712389       27.9131573620
  C         8.0885125953        2.6996875394       22.8179515438
  H         8.1624944310        6.3749058072       22.8921669654
  C         8.5565073893        4.6925753330       21.7722563195
  H         5.1615466488        5.7196074397       23.8213905320
  H         4.8308996405        4.7968260369       25.2756953673
  C         3.8198625696        6.6675725489       25.0556025834
  C         5.7648207193        1.5910514525       28.5222797516
  C         8.5988379614        3.3284601377       21.7111140460
  H         7.9901332736        1.6848234174       22.8747200120
  C         8.9830036055        5.0221971333       20.4999835642
  H         3.1000326132        6.4310861316       24.3454788536
  H         4.1852688944        7.6694909573       24.8864331916
  C         3.2250187638        6.6145730901       26.4748521993
  C         5.7911187205        0.1948856347       28.8024340175
  C         5.3221162950        2.4849196261       29.5762419650
  C         9.0043381103        2.6262332764       20.4395057958
  C         9.1879423324        3.9557124821       19.6887396130
  S         9.4935084361        6.5198359272       19.8144379080
  H         2.3905383399        7.2735107907       26.6403167910
  H         3.9820173543        6.9390801430       27.1738711689
  C         2.7434732913        5.2009108616       26.8119854682
  N         6.1247074033       -0.8612526531       27.8790063033
  C         5.4234393088       -0.2749074718       30.0652306764
  C         4.9063583392        1.9684532728       30.8403347087
  H         5.0870552279        3.5346396496       29.4231247195
  C         7.7792481148        1.8134084821       19.7667415075
  C        10.2942497494        1.7722801523       20.6097099992
  C         9.5079355576        4.3499003149       18.3475381276
  C         9.6601159566        5.7125143760       18.2727996362
  H         2.4347729408        4.6255506021       25.9288766084
  H         3.5686865920        4.6354015412       27.2355941307
  C         1.5429212403        5.0674972598       27.7423054662
  S         5.9457789607       -2.2842764878       28.6706182444
  N         5.4094797244       -1.7099400971       30.1016677315
  C         4.9726042413        0.4971327128       31.1144618738
  H         4.4857333508        2.6389671233       31.6051133449
  H         7.3829554229        1.0922596757       20.5387685529
  H         8.1082883065        1.3007817443       18.8993092868
  C         6.6023301752        2.7055733279       19.3795904450
  H        10.5171240102        1.3040962122       19.5915629471
  H        10.2020745042        1.0137315184       21.3726077880
  C        11.5592738949        2.6154470812       20.9228913165
  H         9.4832356776        3.5748839473       17.5807757892
  C         9.8993808831        6.4727958391       16.9893743313
  H         1.3934260115        3.9658916892       27.9708522030
  H         0.6614264058        5.3811873660       27.2028491710
  C         1.6559109569        5.8773664926       29.0966460911
  C         4.6345611882       -0.1594346787       32.3375855102
  H         6.7364896168        3.5489352699       18.7025649000
  H         6.1533539959        3.1572152035       20.3285074640
  C         5.5409842217        1.8092914040       18.6530568718
  H        11.2733378184        3.4081835061       21.6190868183
  H        11.8517101575        3.2107139357       20.0502917630
  C        12.8684959268        1.8364213191       21.3573484163
  C        10.0114535800        7.8642639910       16.8201992451
  C        10.4528711891        5.7202384124       15.8111327197
  H         1.8074202991        6.9320498705       29.0054100535
  H         0.7858623991        5.6487808252       29.7377987208
  C         2.9263607557        5.4974234492       29.9746345526
  H         4.6820255797       -1.2451903925       32.3648888776
  C         4.4370916776        0.3686788820       33.6100429412
  H         5.1732316412        1.1784672072       19.4307637804
  H         6.0617968469        1.1509732027       17.9377593454
  C         4.4203567297        2.7291341504       18.1510033513
  H        12.8039489666        1.2205923408       22.2732041902
  H        12.6776161630        1.0851678768       20.6026093488
  C        14.2020293679        2.5542414055       21.1480467330
  N         9.7027442866        8.7638115785       17.8221346036
  C        10.4490611813        8.5096251092       15.7170973883
  C        10.6977222790        6.3556997277       14.5985123976
  H        10.4104208717        4.6372467552       15.9632841108
  H         3.1740535945        6.1414269838       30.7698037926
  H         2.7988609825        4.5815142514       30.4213781772
  H         3.7640477849        5.5635165062       29.3571454744
  S         4.3719908561        2.0083126901       34.1118315953
  C         4.3898381339       -0.6116104707       34.7019249227
  H         4.5328026705        3.6533522923       18.7356956691
  H         4.7330754979        3.1093101786       17.1801042090
  C         3.0206867420        2.1373131188       18.3286054693
  H        14.1591202803        3.5563935977       21.5742013276
  H        14.3831381001        2.7009433658       20.1004443939
  C        15.3860963220        1.7495638257       21.7503418975
  S         9.9477655204       10.3095724408       17.3589373340
  N        10.4623285207        9.9040412127       15.8168238870
  C        10.6531419873        7.8557929874       14.5421040578
  H        10.9682388116        5.7190338913       13.7498718922
  C         4.0382504039        1.3941269367       35.6934642981
  N         4.0104895741        0.0739141790       35.8144250805
  O         4.4933669458       -1.8416112018       34.5680816677
  H         2.3119969239        2.7731517871       17.7424916321
  H         2.6495869062        2.1774256426       19.3340073833
  C         2.7719660953        0.7331859353       17.7220674541
  H        15.0501570802        1.2525692236       22.6550790505
  H        15.7383443147        0.8866256708       21.1015628605
  C        16.6471735209        2.5807864377       22.1829168515
  C        11.0159046682        8.6604259500       13.3692762229
  S         3.7121165032        2.2843216639       37.1493388605
  C         3.7820214807       -0.5602400934       37.0727616739
  H         2.5480796248        0.7213798986       16.6618995408
  H         3.7247513212        0.1928498904       17.6857799406
  C         1.6314695276       -0.1357783032       18.3692906791
  H        16.2800652597        3.5091363274       22.6596693049
  H        17.1390425312        2.9121329478       21.2946220201
  C        17.5958648315        1.8828471056       23.0793800540
  H        10.8529909202        9.7347853495       13.4407902319
  C        11.4913374056        8.3570246728       12.1121049450
  H         3.0639467760       -0.0767075388       37.6374807644
  H         3.3674015603       -1.5470041338       36.8421948396
  C         5.0579785395       -0.7498751541       37.8789106432
  H         0.6844966565        0.2623844598       18.1680635233
  H         1.8462210895       -0.2607748615       19.4268398362
  C         1.6167693538       -1.5086094835       17.5656545123
  H        17.9730387204        0.9730182280       22.5976616860
  H        18.5103466351        2.4745268282       23.2528364628
  C        17.0597478543        1.6560002995       24.4539430738
  S        11.9621519854        6.8338519175       11.4546581566
  C        11.6964643542        9.4368716718       11.1764457367
  H         4.8474710554       -1.0208665033       38.9127635670
  H         5.5986175413       -1.5906148327       37.5419616014
  H         5.8089863264        0.0762403580       37.8584550351
  H         1.0109241019       -1.4871420177       16.6245334428
  H         1.3705121017       -2.3351660527       18.1981023363
  H         2.6175544511       -1.7646204779       17.2292300141
  H        16.1604785756        1.1441900961       24.6228686071
  H        16.9804709428        2.5896804604       25.0676718016
  H        17.6966288201        1.0858990588       25.0739710059
  C        12.3224423609        7.6708754027        9.9733871274
  N        12.1872291187        9.0015225515        9.9910433655
  O        11.5769766781       10.6541709223       11.3860016134
  S        12.6818779361        6.9962723149        8.4494429421
  C        12.4679342129        9.8884027659        8.8490052115
  H        12.7332730654       10.9127490372        9.0584408492
  H        13.3594248554        9.4062355745        8.3976733491
  C        11.2569105778        9.9165333950        7.9466644660
  H        10.2938245570        9.9389093565        8.5525513137
  H        11.2719380167       10.8521950680        7.4026968407
  H        11.2668986148        9.1216361855        7.2533192754
  H         2.3143746078        3.8202214810       12.4762560587
  C         2.8685417611        2.9124533958       12.7518296222
  H         2.3224039787        2.0732860586       12.4078389113
  C         4.3141967274        2.9602152029       12.1267937828
  C         2.9863669366        2.8076263135       14.3213973192
  C         4.1585125643        2.9770315698       10.5936817382
  H         4.8434733797        2.1039466919       12.1533236482
  H         4.9081755104        3.8674934747       12.4224583077
  H         2.0597091802        3.1722441589       14.7193831766
  H         3.8364833957        3.3889248861       14.6811979982
  H         3.1847148234        1.7872718888       14.6452310448
  C         4.7602532951        1.8129520546        9.7618898120
  H         3.1038321750        2.9376304089       10.4585053879
  H         4.4797538759        3.9574622885       10.2273114239
  C         5.2956324935        2.1704491556        8.3424175414
  H         3.9019073134        1.0963244642        9.5437857097
  H         5.5464756989        1.2766889152       10.2433251939
  C         6.5662432493        3.0630920175        8.3468558552
  H         4.4986763591        2.7616311593        7.9162299435
  H         5.4150545294        1.2907589289        7.6216590413
  C         7.7638753330        2.3024818862        8.9274746308
  H         6.8557447409        3.3831166971        7.3399066254
  H         6.4231736195        3.9814486107        8.8445036222
  C         9.0364611659        3.1731157083        9.0729119752
  H         7.9449542968        1.3666722204        8.3507539784
  H         7.5092347634        1.9807856895        9.9481054094
  C         8.5547194292        4.5207286365        9.7208797611
  C         9.2908746418        3.7892472340        7.7930708116
  C        10.2093642327        2.3701421169        9.8236072314
  C         8.8280772877        5.5700385746        8.8653592120
  C         7.9889062614        4.8993599992       10.9039741077
  C         9.1506547289        5.1181088813        7.6121017225
  C         9.8392025261        3.1284552758        6.7388271831
  H         9.7229259936        1.9712716444       10.6610162498
  H        10.6471164329        1.5078684806        9.2357289605
  C        11.3595921249        3.2138634844       10.3155976980
  S         8.5539886540        7.0574069581        9.5843859461
  C         7.9730372438        6.2488681006       11.0740088439
  H         7.7292071642        4.1877567282       11.6449702653
  C         9.5514962621        5.6626244225        6.4096698624
  H         9.8874845519        2.0852314858        6.9726360759
  C        10.2241682998        3.6686698978        5.5517765519
  H        11.1220250766        4.2151613712       10.6203175206
  H        12.0193401277        3.3447403601        9.4366380245
  C        12.2623300512        2.5676259399       11.3097334675
  C         7.6636451435        6.8355422079       12.4326893833
  C        10.1657150989        4.9847067990        5.3643140206
  H         9.4160752163        6.6827907870        6.2134553725
  C        10.7061208957        3.2332647373        4.3296221250
  H        12.8700615925        3.3435391401       11.5500132724
  H        12.9267282638        1.8435751894       10.8309425202
  C        11.4796630387        2.1052134463       12.5244680328
  C         7.7652500674        8.2329914234       12.6840294926
  C         7.3244335342        5.9409169400       13.6101536429
  C        10.7518564590        5.6234879442        4.1616838237
  C        10.9839609763        4.3065068025        3.4943094531
  S        11.1141879123        1.6642199931        3.6569032443
  H        10.7279560432        2.9120779439       12.7129871773
  H        11.0671330942        1.1437191275       12.2534803784
  C        12.3583905928        1.9323734484       13.8189588736
  N         8.0671489275        9.2021451942       11.7552979093
  C         7.4493244500        8.7969234570       13.8615320995
  C         6.9631973888        6.5785105346       14.8028514383
  H         7.2273459753        4.9207519252       13.4734501184
  C        12.1098249427        6.3567152463        4.4309282650
  C         9.7572283214        6.4911739707        3.4268841941
  C        11.4798012752        3.8748556233        2.2736174415
  C        11.4275340538        2.5181969940        2.1111901011
  H        12.9178005673        2.8624833605       13.8674223864
  H        13.1400653184        1.0906851725       13.8084106592
  C        11.5215423579        1.7191390503       15.0662886618
  S         8.0763090022       10.6994047978       12.3967271687
  N         7.6566737402       10.1976229185       13.8691625477
  C         7.0776671901        8.0662558441       15.0097529691
  H         6.7789782753        5.9708324058       15.6273325836
  H        11.9046728456        7.2070800313        5.0647814012
  H        12.5756707483        6.6705273365        3.4946878804
  C        13.0918914043        5.4825800447        5.2050056971
  H         9.3357140501        7.3186147057        4.0280348550
  H        10.2949411054        6.9921793812        2.5884536910
  C         8.4813570753        5.8340040930        2.9028394126
  H        11.8491726003        4.5778197369        1.5762996889
  C        11.7881576558        1.7538431418        0.8574004305
  H        10.8734095446        2.5951439245       15.2960354483
  H        10.8818103793        0.8800011954       15.0552809152
  C        12.4376188432        1.6036228527       16.2406017297
  C         6.8601656565        8.7625915241       16.2428046715
  H        12.6701661240        5.3079500526        6.1565563538
  H        13.3357526968        4.5454901058        4.6845467224
  C        14.3741984686        6.2337953342        5.2663821486
  H         7.9860389910        5.1993333320        3.6587811534
  H         8.7996832755        5.2389882053        2.0159368056
  C         7.4237116169        6.7775699663        2.2688091767
  C        11.8057811866        0.3569578236        0.7678063790
  C        12.0941248334        2.5247344652       -0.3895558075
  H        12.9491131784        0.6420530460       16.1770367878
  H        11.7319991461        1.6347114795       17.0806020786
  C        13.3214784499        2.8322271501       16.4698022315
  H         6.9812026980        9.7843512214       16.1428090170
  C         6.5645143925        8.3491986962       17.4728857319
  H        14.3222266922        7.1821284728        5.8626787707
  H        14.6876414623        6.6928213445        4.2685565525
  C        15.5500804295        5.3043598814        5.6186982945
  H         7.0062677781        7.5031311000        2.9730011479
  H         7.8758383095        7.4239005802        1.4998900074
  C         6.2462095079        6.0069997039        1.7095624212
  N        11.4660658679       -0.6051919230        1.7230282166
  C        12.2581333362       -0.2775921352       -0.4189545932
  C        12.4582821279        1.8789870477       -1.5891753533
  H        12.0912164106        3.6563293614       -0.3742308033
  H        12.5796451400        3.6161246260       16.5668344349
  H        13.9816362643        3.0143878890       15.6031114481
  H        13.8129450529        2.9296753221       17.4687029699
  S         6.3556055286        6.7571199552       18.0273740769
  C         6.4297808427        9.3428384370       18.5937743295
  H        15.1964078700        4.5161913081        6.2840099475
  H        15.8672587750        4.7797012390        4.6917768474
  C        16.7626160505        5.9709946067        6.2768019997
  H         6.0764456385        5.0682862525        2.2146623745
  H         6.4997381260        5.7054745445        0.6614116506
  C         4.9132019123        6.8392128036        1.5636229991
  S        11.7597778616       -2.0956725946        1.1760884120
  N        12.3454683667       -1.6566207831       -0.3481976822
  C        12.6248961893        0.4051270898       -1.5908610203
  H        12.7959966376        2.5187238589       -2.3623654287
  C         5.9981655219        7.3674452924       19.5922256563
  N         5.9691976929        8.7872090568       19.7069999699
  O         6.6688941447       10.4979071314       18.3654116772
  H        17.5261146141        6.4198378509        5.6322522783
  H        16.2774559598        6.8257244532        6.7715298896
  C        17.5293550795        4.9988794253        7.1846011545
  H         4.3429294797        6.1884564761        0.8835714357
  H         4.3687382550        6.9167811709        2.5560995206
  C         4.9714444970        8.2262789536        0.9047264413
  C        13.0650615876       -0.3566744283       -2.7143662976
  S         5.3914689566        6.3654470305       20.9635226016
  C         6.0995661595        9.3773567080       20.9686182439
  H        17.0842387681        5.1050088155        8.1340143827
  H        17.4644001859        3.9910231450        6.8695243390
  C        19.0354511496        5.4834077492        7.3231265829
  H         4.6366885577        8.0034774845       -0.1022788690
  H         6.0105517963        8.5919803285        0.8871486587
  C         4.0069506759        9.1395163794        1.6828638253
  H        13.1012079001       -1.4211912883       -2.5413512353
  C        13.5039277865       -0.0181103572       -3.9694843032
  H         5.4589075801        8.9971775755       21.6795108628
  H         5.8162687128       10.4393124378       20.9408873614
  C         7.5250648507        9.2592760839       21.4853496760
  H        19.6361111870        4.9743587318        8.0382977758
  H        19.0936151399        6.4775728033        7.6404935971
  C        19.8613130450        5.4003012291        6.0889138490
  H         2.9592111819        8.8119276479        1.4938971085
  H         4.2369156090        9.1713499369        2.7388354944
  C         4.3016528955       10.6034630392        1.2793730458
  S        13.8992339345        1.5855539915       -4.6000651928
  C        13.5300779611       -1.0665440275       -4.9898551394
  H         7.6159066240        8.4620382060       22.2047002247
  H         7.8805816055       10.2011404619       21.8964870866
  H         8.2097794445        9.0643947810       20.6734476419
  H        19.9405080278        6.3032772878        5.6291974709
  H        20.8811339973        5.1854901775        6.5307322545
  H        19.6882465887        4.5623275614        5.4459784467
  H         5.0364622334       11.1270906445        1.9618122069
  H         4.5879403018       10.6998770853        0.2195634769
  H         3.3793793263       11.1949081668        1.3815678584
  C        14.1479382996        0.7723786223       -6.1509415028
  N        14.0070169971       -0.5932675192       -6.1387059633
  O        13.1388241004       -2.1994733182       -4.7116884298
  S        14.9547011418        1.3838314595       -7.5748349642
  C        14.2255397021       -1.5545677528       -7.1736542144
  H        14.3942455323       -2.5280622382       -6.7543450054
  H        15.1059733483       -1.4022432130       -7.8598225655
  C        12.9405098164       -1.6663989542       -8.0803398577
  H        12.7457218407       -0.6588375111       -8.4003466411
  H        12.1759079004       -2.0628745215       -7.3989663233
  H        13.3011018098       -2.2487645299       -8.9705413125
