352
 i =   124100, time =    62050.000, E =        98.7788596260
  H         8.9484745393        5.4012990139       32.4688986081
  C         9.8406814342        5.9074269298       32.3722097963
  H         9.5164561647        6.8430459995       32.6561837644
  C        10.3911319174        6.0155812532       30.9889247275
  C        10.8287008147        5.4265621457       33.5198927362
  C        10.3214032948        4.7263118052       30.1427392054
  H         9.7566424888        6.7981625522       30.5595809934
  H        11.4619995759        6.3402258600       31.0212851162
  H        11.3346222961        6.1812678036       34.1157423865
  H        10.3046088878        4.8620459195       34.2656487789
  H        11.5571949157        4.7181355594       33.1786056687
  C        10.9782248951        4.9167239444       28.7673391118
  H         9.2777585959        4.4891664674       29.9654388371
  H        10.6004560675        3.8554705939       30.6964145565
  C        10.2566960206        5.7467878901       27.7136748551
  H        11.9216094680        5.3696750674       28.9559217349
  H        11.2531256766        3.9831574917       28.2627105980
  C         9.1423205662        4.9113958538       27.0700173101
  H        11.0600540394        6.0883319882       27.0598799798
  H         9.7784354369        6.5931711198       28.1707937129
  C         8.1638378367        5.9023726494       26.4314406942
  H         9.5954435742        4.3371773933       26.2808563977
  H         8.7524876566        4.0917424138       27.6566386332
  C         6.9801229291        5.4502902266       25.5180833942
  H         7.8067302404        6.6808189252       27.1874229063
  H         8.7357232639        6.5884408201       25.8269387429
  C         6.5584971123        4.1425001644       26.2753942118
  C         7.4462650652        4.6226039960       24.2893391505
  C         5.8219054255        6.4144864503       25.3877256870
  C         6.7073042045        2.9984596193       25.4923333111
  C         6.2095403046        3.7929949603       27.5924291608
  C         7.2244742748        3.3346753469       24.2227946836
  C         7.9954331084        5.1575550701       23.1905182699
  H         6.0446485488        7.2106150718       24.7328750169
  H         5.5194467743        6.7873268354       26.3853202290
  C         4.4900792916        5.6813510199       24.8241387201
  S         6.3514270740        1.5766157690       26.2799929014
  C         6.0844768090        2.4215091285       27.7157592143
  H         6.0854652461        4.5527096126       28.3300348436
  C         7.6857798091        2.6117182860       23.1336892244
  H         8.1638213575        6.1990643139       23.2022944186
  C         8.3011272447        4.4878654615       22.0419636287
  H         4.7840902508        5.3713247272       23.8306215240
  H         4.3017158053        4.7020690715       25.3493190256
  C         3.3072729641        6.6750008263       24.7207287567
  C         5.8997767555        1.7724880184       29.0131410548
  C         8.1907757748        3.1521729135       21.9424473820
  H         7.5946657058        1.6057457228       23.2411386535
  C         8.8070396656        4.8834338712       20.7828860931
  H         2.6285495027        6.3875206910       23.8534518272
  H         3.5982044096        7.6274505691       24.3509029504
  C         2.6330214686        6.8600501668       26.1147435299
  C         5.9428463999        0.3837247875       29.2268524680
  C         5.5381475441        2.5811363961       30.1958935278
  C         8.5392069340        2.4345290025       20.6524816530
  C         8.8712664280        3.7720700250       19.9288433340
  S         9.1918459732        6.3555876630       20.0421511192
  H         1.7144037216        7.3388649768       26.0458308586
  H         3.2577589707        7.4729709563       26.7716909054
  C         2.2715950500        5.5166741552       26.8416333397
  N         6.3235219691       -0.6100865583       28.3107211610
  C         5.5887119723       -0.2061615401       30.3986148078
  C         5.1760984322        1.9656244867       31.4235599891
  H         5.6930755618        3.6487794404       30.2761495982
  C         7.2894287814        1.7199389327       20.0178341180
  C         9.8011232666        1.5158584258       20.7641598261
  C         9.2947972278        4.1610927252       18.6383969904
  C         9.5395392076        5.5064994189       18.5651253670
  H         1.8211402490        4.8518058468       26.0861928157
  H         3.1452392459        4.9129480893       27.1221041664
  C         1.2004188723        5.6264067344       27.9178134523
  S         6.2756257970       -2.0441598761       28.9556811532
  N         5.7207369805       -1.5902007300       30.4029976871
  C         5.2030341894        0.5181342162       31.5602254023
  H         5.0550270609        2.6616528467       32.2381293448
  H         6.9404035857        1.0699478462       20.7902303382
  H         7.6958208328        1.1238297418       19.2088363321
  C         6.1864226408        2.6969390826       19.5841873661
  H        10.0967981200        0.9237289134       19.9321839916
  H         9.5532562086        0.7968121410       21.5165674849
  C        11.0065804886        2.2334866866       21.4014241577
  H         9.3388785463        3.3799022676       17.8312129359
  C         9.9791020407        6.2101665767       17.2517297012
  H         0.9696839590        4.5810933546       28.0735160278
  H         0.2789633846        6.1883949430       27.8102806584
  C         1.7008459962        6.0245896571       29.3950036334
  C         4.9463127043       -0.2317393392       32.7501315261
  H         6.5874244207        3.4694669630       18.9003838820
  H         5.9179263369        3.4039096146       20.3045607333
  C         4.8092319345        2.1115115531       19.2155609584
  H        10.7212409222        2.8044867954       22.3332814161
  H        11.3507971863        2.9519427895       20.6355474694
  C        12.2758920064        1.3255797536       21.6328928638
  C        10.1246826572        7.6039501585       17.1216945767
  C        10.0628821997        5.4351457838       16.0173647092
  H         1.5935359417        7.0833503758       29.5582070489
  H         1.0860168882        5.4381619123       30.0281835619
  C         3.2136256315        5.7531244816       29.6218409659
  H         4.9716244506       -1.2546436669       32.7145282518
  C         4.5852651254        0.1149217329       34.0456935682
  H         4.1194451696        2.5751958384       20.0262639181
  H         4.7661108587        1.0209998421       19.2250120831
  C         4.3907111210        2.5126760117       17.8653793050
  H        12.1391830203        0.4927069557       22.3287903968
  H        12.6340934913        0.8436601653       20.6620697899
  C        13.4206614340        2.2185208469       22.2509439115
  N         9.8242596141        8.5104456738       18.1491744145
  C        10.4377777992        8.1976637936       15.8900608761
  C        10.4076005878        6.0263553043       14.8120235393
  H         9.8973623850        4.3399619998       16.0599991188
  H         3.3589277913        5.8229658487       30.7597193735
  H         3.5835834258        4.7871373303       29.3489839028
  H         3.8136869237        6.4743806278       29.0021072516
  S         4.3238959515        1.7145498787       34.6223137931
  C         4.4802270014       -1.0313418693       34.9904867167
  H         4.3275007533        3.6058890692       17.8863006881
  H         5.1648921523        2.2989571236       17.1086485220
  C         2.9736194248        2.0447933732       17.4913968644
  H        13.1333938849        2.5227012502       23.2549893966
  H        13.4171234507        3.1072698282       21.6581386972
  C        14.8213909017        1.6854876445       22.2705601305
  S         9.9965943216       10.0775348149       17.5086250784
  N        10.5315621945        9.5827128925       16.0330236842
  C        10.6425664106        7.4477570581       14.7003034909
  H        10.4966006703        5.4025701484       13.9374126462
  C         4.1184319440        0.8599579747       36.1656591767
  N         4.2138150817       -0.5040008312       36.1853729620
  O         4.6480457417       -2.2837896484       34.7501954193
  H         2.7240795149        2.6946385661       16.6781576552
  H         2.2029348435        2.2228997472       18.3009517150
  C         2.9978641592        0.6370982592       16.9898685764
  H        14.9987836696        0.8488618879       22.9863059834
  H        15.1009414792        1.2360880105       21.3461594995
  C        15.8949659529        2.7496206515       22.5015073420
  C        11.0979407663        8.1473787250       13.5386874507
  S         3.7398952295        1.7090295753       37.6875606034
  C         4.3024025444       -1.2957302805       37.3789168938
  H         2.2583960441        0.5899264736       16.1541302039
  H         3.9029721797        0.3469708870       16.5120285946
  C         2.9036058404       -0.4763635823       18.0345061929
  H        15.5933629886        3.4331170595       23.2985394027
  H        15.9369542453        3.4413312173       21.6124199579
  C        17.3034451906        2.2547815127       22.6471779227
  H        10.8516848566        9.2169969542       13.6855316896
  C        11.5696207841        7.7552441108       12.3276861677
  H         3.5112285758       -0.9767880995       38.1007199733
  H         3.8804810152       -2.2599618724       37.1013806218
  C         5.7643511793       -1.3916530418       37.8364602499
  H         2.4837553623        0.0391178149       18.9390222980
  H         3.8838341592       -0.8992024511       18.3240023203
  C         1.9613497497       -1.5915479166       17.5437819120
  H        17.4430931613        1.3621684720       22.0832362794
  H        18.0319660068        2.9787185602       22.1541839138
  C        17.6760191818        1.9595438110       24.0703976485
  S        12.0949167532        6.1687654400       12.0117978934
  C        11.7539520491        8.7229478347       11.2666560270
  H         6.3861148003       -0.5861598771       37.4398932289
  H         5.9251175558       -1.4838425401       38.9192332088
  H         6.2152772356       -2.3235454111       37.4431015426
  H         2.2492240691       -2.6301037635       17.2375681993
  H         1.5431501588       -1.2432036114       16.6026962521
  H         1.1198375235       -1.6607233293       18.3029000378
  H        16.9999191244        1.3013728437       24.5978465629
  H        17.8309278104        2.8337128406       24.7092832208
  H        18.6591372382        1.4187046042       23.9552625397
  C        12.6342228615        6.8156629761       10.4060125157
  N        12.3776539204        8.1307800260       10.1803768180
  O        11.3844079725        9.8840621740       11.4473435283
  S        13.4330699957        5.8067580366        9.1551219325
  C        12.7632206258        8.8650912022        8.9413129806
  H        12.4586085370        9.9346695743        9.1998172876
  H        13.7328063938        8.6401979784        8.6680319464
  C        11.8724202128        8.4666433485        7.7416500499
  H        12.0632771181        9.0892767862        6.8262437874
  H        12.0724554521        7.4945520929        7.3618306692
  H        10.8111408215        8.5219713490        7.9358175292
  H         2.2593244585        3.5146640602       12.9174824022
  C         2.7227660635        2.5965815084       12.7291861082
  H         2.2054246033        1.9356560491       13.4286098622
  C         2.4512350167        2.1829834043       11.2303397331
  C         4.2053561529        2.5836978361       13.1576212432
  C         3.5388076207        2.5838250492       10.2292333782
  H         1.5366480708        2.6359646301       10.8585938743
  H         2.3146482531        1.1735028546       11.1634257391
  H         4.2715161410        2.7214852474       14.2026137029
  H         4.7576809385        3.4185685224       12.7692107174
  H         4.7490863048        1.6585648658       12.9360703572
  C         4.4259600587        1.3596458272        9.8107085504
  H         2.8462450944        2.9079040798        9.4220359042
  H         4.0729384861        3.5115649808       10.5767558142
  C         5.3650537559        1.6335153169        8.6313704686
  H         3.7397834794        0.5718577770        9.6027005383
  H         4.9602520893        1.0909925384       10.7157972467
  C         6.5353664964        2.5118803945        9.1324386678
  H         4.8424427265        2.0968030192        7.7656847539
  H         5.8169803283        0.7370863792        8.3859250827
  C         7.8488986254        1.8046668862        9.3872258876
  H         6.7280968364        3.0787419738        8.2430511446
  H         6.1483333246        3.2580464136        9.8939022206
  C         8.9949245348        2.7621391594        9.5389383485
  H         7.9725669032        1.1142930595        8.5580021902
  H         7.9787088239        1.1130895961       10.2467660234
  C         8.7203989061        4.1179111526       10.2356764630
  C         9.4651733245        3.4537233575        8.2705179796
  C        10.0843965930        2.0083139293       10.3531903870
  C         8.9929509822        5.1994695754        9.4225693279
  C         8.2745820414        4.5138051691       11.4984802900
  C         9.4407797487        4.7944804046        8.1403897129
  C         9.8906537604        2.7701972310        7.1143530584
  H         9.5861087245        1.4936024407       11.1783452538
  H        10.5593155500        1.2271829090        9.8025366573
  C        11.2155866077        2.9329005792       10.8639676784
  S         8.6677623056        6.7155884747       10.1548503857
  C         8.1244785834        5.9044487564       11.5650138788
  H         7.9882088824        3.7075935758       12.1859405111
  C         9.8615275013        5.4025521265        6.9620341909
  H         9.8036924632        1.7207119647        7.1992464579
  C        10.2769874628        3.3357396940        5.9447006449
  H        10.7845039048        3.8272416867       11.2967244320
  H        11.7182253866        3.3427817239        9.9733336920
  C        12.2546757030        2.1903194706       11.7156480969
  C         7.5711179166        6.5656062281       12.7773431705
  C        10.3188284613        4.7026773818        5.8428496609
  H         9.7457111508        6.4582166160        6.9031240280
  C        10.7214355935        2.9037626893        4.7195223995
  H        13.2235853006        2.6196019698       11.7423175641
  H        12.4644629733        1.1362355482       11.3071400069
  C        11.7110553741        2.1717677557       13.1238484889
  C         7.7696439132        7.9105481211       13.1149868077
  C         7.0895137070        5.7615236426       13.9228928879
  C        10.7745669984        5.3023450109        4.5874878974
  C        11.0235023560        3.9867451273        3.9183707674
  S        10.9635642547        1.3828059381        3.9567885180
  H        11.2045099212        3.0409513825       13.3031286224
  H        10.9982867148        1.4468419404       13.3299600221
  C        12.8817780918        2.2821515412       14.0475707125
  N         8.3756653466        8.8747643209       12.2875213333
  C         7.4364452019        8.4778918861       14.3539682641
  C         6.7568569497        6.3035846221       15.1618199067
  H         6.8443653841        4.6834497340       13.7733409693
  C        12.0590253769        6.1741972689        4.6454494821
  C         9.6028854868        6.1676903570        3.8420940681
  C        11.4866751476        3.5756625898        2.6746257323
  C        11.5029522731        2.2366324045        2.5579783337
  H        13.3869989860        3.2532610292       13.9478792954
  H        13.6298041868        1.5284635759       13.7459630643
  C        12.3494645335        2.0212745569       15.4725091857
  S         8.4826407465       10.3334899988       13.0875536358
  N         7.8521107245        9.8078928427       14.4834957411
  C         6.9576645243        7.7828238953       15.4734549608
  H         6.2054877619        5.6879424857       15.7958876018
  H        11.9320455993        7.0667309024        5.2305716796
  H        12.1864609646        6.5733222983        3.6032006846
  C        13.2507913402        5.3811604708        5.0795098968
  H         9.1353789097        6.9567629839        4.4108021689
  H         9.9938641615        6.8215989244        3.0348078473
  C         8.4627949129        5.3065726883        3.2163655776
  H        11.7590902504        4.2945901609        1.9366600796
  C        11.8761440074        1.4582985731        1.3436565076
  H        11.5650679515        2.7384162215       15.6176604741
  H        11.7777810937        1.1021346131       15.3599959333
  C        13.3962220167        2.0915864160       16.6237550589
  C         6.7072592215        8.4999679271       16.6648973978
  H        13.0598444337        4.9171544441        6.0749970566
  H        13.4335260997        4.6128574712        4.3451668300
  C        14.5017865850        6.2302919066        5.2092402895
  H         8.0781493441        4.8829765633        4.1407649555
  H         8.8386744405        4.5401081974        2.5813762776
  C         7.1556774014        6.0527218780        2.6743723873
  C        11.8974083597        0.0413710666        1.1535727577
  C        12.1393231983        2.1845395832        0.1552422332
  H        14.0568616355        2.8219153041       16.3651558446
  H        14.0260839516        1.2522490574       16.6084516450
  C        12.7465564058        2.5548147992       17.9469838688
  H         7.0225413317        9.5675480349       16.6432016831
  C         6.3158009574        8.1275608560       17.8971903336
  H        14.3463135529        7.0499311572        5.9185293133
  H        14.6786117846        6.6022480580        4.1599843859
  C        15.7323304453        5.3736277931        5.6442434818
  H         6.8261020392        6.7450478321        3.4830464260
  H         7.3844242014        6.7584697337        1.9530074157
  C         5.9828133546        5.1718241431        2.1771323020
  N        11.5870181465       -0.8863808344        2.1474457047
  C        12.0826428987       -0.5588406439       -0.0592567733
  C        12.3582241027        1.6342652324       -1.0861224300
  H        11.9749901542        3.2630265758        0.1715071743
  H        12.0455005913        1.8427313280       18.5114937931
  H        12.3210928510        3.5355907379       17.8940898015
  H        13.6442868778        2.6381000753       18.6029316009
  S         5.8590297107        6.5625604839       18.4186255319
  C         6.2702606980        9.1781507992       18.9441682803
  H        15.4228291598        4.6271538590        6.3423477417
  H        16.1759973690        4.8917261747        4.8004981120
  C        16.8938923700        6.0913588656        6.1895854536
  H         5.5437377829        4.7771249445        3.0935455708
  H         6.3012567972        4.2276470838        1.6745039807
  C         5.0609241448        5.9546092973        1.2971585633
  S        11.4443419323       -2.3601495484        1.5091393640
  N        11.9252838779       -1.9230531013       -0.0233884404
  C        12.3408605667        0.1310772769       -1.2605025656
  H        12.4613228115        2.2785895524       -1.9545510972
  C         5.6964250887        7.2627106072       19.9784554462
  N         5.8559351701        8.6025698769       20.0865627992
  O         6.7358312408       10.3453908289       18.7640257720
  H        17.4597034761        6.6407438778        5.4360903593
  H        16.5834520928        6.8765503230        6.8986297887
  C        17.8030406076        5.2632314496        7.0206423085
  H         5.6208367921        6.4330037025        0.4682175394
  H         4.2995262118        5.3590728733        0.8032220890
  C         4.3085470840        7.0806724638        2.0107480903
  C        12.5302925930       -0.5821674304       -2.4965992034
  S         5.4363291744        6.3676457832       21.3762650527
  C         5.7652420528        9.4592381405       21.2526371528
  H        17.3297015432        5.1266431799        7.9694567048
  H        17.9795165502        4.3368606796        6.4721722878
  C        19.1864246083        5.8712629035        7.1482330074
  H         4.5557775978        7.1060165577        3.1188683589
  H         3.2824228770        6.8797671098        2.1642670074
  C         4.5572498097        8.4715995039        1.4294869938
  H        12.4771105562       -1.7046933223       -2.4185025312
  C        13.0276190599       -0.2993396628       -3.7841891523
  H         5.0609962541        9.0645789479       22.0001836775
  H         5.3027610237       10.4186861434       20.8784981201
  C         7.0722923735        9.7500180527       21.9431723472
  H        19.6408395658        5.4545647039        8.0652536069
  H        19.1343651950        6.9950601606        7.2478238885
  C        20.2621751446        5.6472453767        5.9896314952
  H         5.6390544641        8.8065338167        1.4948801046
  H         4.5247434234        8.5494417155        0.3119075171
  C         3.7303071456        9.4797190417        2.0439043292
  S        13.5651622028        1.2550983183       -4.2506626153
  C        13.1203995579       -1.4318224675       -4.7806030159
  H         7.8797198729        9.9036744573       21.2242208879
  H         7.2756465687        8.8519388999       22.6061322618
  H         7.0019257054       10.7679472611       22.4581390307
  H        19.8275836712        5.7848162160        4.9971965453
  H        20.9633271256        6.4493008431        5.9714888801
  H        20.7657307580        4.6753942551        6.0361178784
  H         3.2818823338        9.1119953347        2.9179634937
  H         4.1429500872       10.5122494993        2.2693033765
  H         2.9657542977        9.6072869088        1.2440818604
  C        13.9815397571        0.4084602223       -5.7664508353
  N        13.8027764205       -0.9142753070       -5.8380340008
  O        12.7256153525       -2.6197662920       -4.6605991147
  S        14.4514134540        1.1523812833       -7.3438375813
  C        13.9569401660       -1.6543892149       -7.0851245165
  H        14.0800415909       -2.7072131520       -6.8223093988
  H        14.8877049664       -1.4341226184       -7.6186273731
  C        12.6717964669       -1.4649575118       -8.0123219922
  H        12.1366802258       -2.4183169706       -8.1900811537
  H        12.9559031600       -1.0502339577       -8.9778595177
  H        12.0299413142       -0.6989630530       -7.5815109965
