352
 i =   122700, time =    61350.000, E =        98.3176130476
  H        10.1006024440        7.1407594759       32.0417847187
  C        11.0094620692        6.7243484990       32.4203232955
  H        11.5018422433        7.5726193655       32.8040509808
  C        11.8074354693        6.1385271229       31.2016279784
  C        10.6366406406        5.8372671051       33.5246597892
  C        11.0402016151        5.9789396130       29.8440151465
  H        12.7802372631        6.6143831557       31.0378762783
  H        12.0472449821        5.1195649319       31.5389076099
  H        11.4417369433        5.5901703203       34.1750138888
  H         9.9324771200        6.3929505673       34.0475782947
  H        10.2043220468        4.9184931953       33.2198494542
  C        11.8128232632        5.9415884754       28.5086567821
  H        10.4242078919        6.8479303446       29.7819510862
  H        10.4057757496        5.1481493041       29.7892668817
  C        10.9631205233        6.5651262807       27.3751577078
  H        12.6871988332        6.5920767911       28.5379027434
  H        12.1731708898        4.9458091706       28.1924845096
  C         9.9964438697        5.5863268702       26.6652198601
  H        11.6278637667        6.9444118568       26.6070785797
  H        10.4433635177        7.4070025189       27.6931961279
  C         8.6074632115        6.3419415732       26.3720309509
  H        10.5514002543        5.2552652297       25.7787596902
  H         9.8561840213        4.7034045387       27.2965434914
  C         7.5104259584        5.5227232894       25.5819758752
  H         8.1124601765        6.6885238438       27.3221494539
  H         8.9146499971        7.1665025585       25.7014792776
  C         7.1972764615        4.2016808163       26.3500795542
  C         7.9161921659        4.8225182794       24.3675431673
  C         6.1284334695        6.1259288776       25.4463684830
  C         7.4000959911        3.1004908454       25.5581288614
  C         6.7032943405        3.8504777107       27.6157540186
  C         7.8559630493        3.4772872535       24.3124077967
  C         8.3212011073        5.3741735064       23.1796918314
  H         6.0431394538        6.9616444429       24.7891238183
  H         5.6990997293        6.4744587263       26.4064028906
  C         4.9661076173        5.1525693327       24.8464041166
  S         6.9272425501        1.6131188025       26.2537695992
  C         6.4991085079        2.4511950116       27.7110066100
  H         6.5355199807        4.6256259994       28.2962152003
  C         8.1459597100        2.8396168081       23.1451832060
  H         8.2979841180        6.4114118690       23.1416473359
  C         8.6588152207        4.7570105855       21.9885294862
  H         5.2485614663        4.9542080128       23.8534236175
  H         4.8967691004        4.2494639871       25.4060908788
  C         3.7106977770        5.9257111648       24.9024035450
  C         5.8564118343        1.7366113143       28.8365603939
  C         8.5460108597        3.3871484339       21.9356184774
  H         8.0805283522        1.7796365438       23.1996019732
  C         8.9876939803        5.0143384119       20.6887912420
  H         2.9131912654        5.3387090008       24.3634176793
  H         3.8469926223        6.8704326016       24.3963637414
  C         3.1041365037        5.9656889971       26.2927807233
  C         5.8086033472        0.3599552236       29.0462539653
  C         5.3531748814        2.5667043345       29.9357166137
  C         8.8888504977        2.5564495995       20.7522517662
  C         9.1616699336        3.8160272513       19.9111026409
  S         9.2961125396        6.4368803855       19.7516139534
  H         2.3073159355        6.6717636035       26.2640977898
  H         3.6674396354        6.3828706361       27.1226317293
  C         2.6571493790        4.5489998611       26.8101860347
  N         6.0418955873       -0.6412498134       28.0982534482
  C         5.4375830242       -0.1440027266       30.2939163640
  C         4.8250541233        2.0453182805       31.1852774973
  H         5.2105789357        3.6836653742       29.8548009496
  C         7.6488978350        1.8901865027       20.2511739102
  C        10.1949024095        1.7384225675       20.8884414763
  C         9.5447459892        4.1570822134       18.5352312941
  C         9.6814165419        5.5321778014       18.3549332617
  H         2.3982896718        3.9591855192       25.9605830007
  H         3.5795550162        4.1725609085       27.3187398401
  C         1.4926095755        4.4959095018       27.8577455768
  S         6.0251621928       -2.0623259886       28.9165774842
  N         5.5023937866       -1.4983449828       30.3395351089
  C         5.0474455253        0.6239108956       31.4258201069
  H         4.3969716228        2.6819507128       32.0052318996
  H         7.2948777453        1.2137546550       20.9846111326
  H         8.0508039144        1.2658527973       19.4624685442
  C         6.4948272753        2.7430617362       19.6331141554
  H        10.3812702002        1.0184069134       20.1140907843
  H        10.0629729681        1.1396319303       21.7620936059
  C        11.4064108002        2.7439088560       21.1442355184
  H         9.6406713898        3.3277898490       17.7642792604
  C         9.9037797401        6.2837328686       17.0490820922
  H         1.5275017421        3.5687782820       28.4285034621
  H         0.5250376745        4.6148950324       27.2768316510
  C         1.7068899627        5.5760187799       28.9130428871
  C         4.7702763954       -0.0458453547       32.7311637340
  H         6.8669937021        3.3868508049       18.7856803240
  H         6.1061618386        3.4367367444       20.3918946996
  C         5.2957461128        1.8685739289       19.2684760708
  H        11.1444600892        3.4099745857       21.9193002002
  H        11.5466034730        3.4187151468       20.3178072905
  C        12.7025704745        2.0348287861       21.4353016872
  C         9.9480256057        7.6785604474       16.9935185792
  C        10.0932242395        5.5307263897       15.8130587381
  H         1.8373208642        6.6111816713       28.5391840773
  H         0.7992062970        5.4248693318       29.4569111551
  C         2.8377352009        5.0945764659       29.8371414001
  H         4.7457701442       -1.1594853289       32.6710575364
  C         4.6579721023        0.3540112537       34.0680993805
  H         4.7303250357        1.8124072152       20.2076462832
  H         5.6622093645        0.8287960527       19.0639837880
  C         4.3937675102        2.3216690838       18.1435769966
  H        12.4760467102        1.4568133937       22.2864388807
  H        12.8262881009        1.4212996329       20.5114751640
  C        13.9190511886        3.0212618046       21.6563182402
  N         9.8644355845        8.6142290977       17.9679899424
  C        10.1685273285        8.3050897712       15.7372792773
  C        10.2856023736        6.1314792766       14.5903856934
  H         9.9276876459        4.4331306076       15.7514868491
  H         2.8019030308        5.5607534415       30.8381127133
  H         2.5449814469        4.0567033722       30.0881333447
  H         3.8230665535        5.3039979726       29.4562577830
  S         4.4851035182        1.9513725512       34.6668650240
  C         4.5798450348       -0.7483840303       35.1138227091
  H         4.0872919248        3.4055796515       18.1493313811
  H         4.9172795999        2.0313546468       17.2297595403
  C         3.1465548002        1.4281468019       18.0773043710
  H        13.9271229583        3.4275968545       22.6379630918
  H        13.7623464503        3.8053085103       20.9030580028
  C        15.2988098766        2.4654099559       21.3000356496
  S        10.0481482198       10.0760442738       17.4201530467
  N        10.2272468625        9.6756017977       15.8439766457
  C        10.4896698375        7.5982098829       14.5883870295
  H        10.4215540026        5.5011195382       13.7273445319
  C         4.3352750074        1.2192591712       36.2657407018
  N         4.3247943962       -0.1664311208       36.2842066484
  O         4.5705469674       -1.9829335062       34.8735527950
  H         2.5193172158        1.9459420255       17.3975811502
  H         2.5472107051        1.3871696289       18.9853757055
  C         3.3143706626       -0.0413766467       17.6563108384
  H        15.2412706269        1.4279642704       21.8076972573
  H        15.5905522262        2.3121404544       20.2386224565
  C        16.3980771508        3.2797869120       22.0693374830
  C        10.8628204705        8.4296051012       13.4743607227
  S         3.9178872008        2.0608548052       37.7445872717
  C         4.2763404632       -0.9012432575       37.5117081483
  H         3.4449317314       -0.0634780022       16.5988926949
  H         4.1816513551       -0.4932900356       18.0293864299
  C         2.2217046914       -0.9380873569       18.0905165497
  H        15.9749040230        3.9791516149       22.7152544232
  H        17.0266476169        3.8082617934       21.2999785356
  C        17.3516173992        2.3323890689       22.7599810145
  H        10.6169989919        9.4306182124       13.5444426714
  C        11.4048397851        8.1377611064       12.2816157203
  H         3.7625943448       -0.4902380311       38.3416581103
  H         3.5682993263       -1.7248973642       37.3464188837
  C         5.6944467712       -1.3306347665       37.8299234877
  H         1.2476868332       -0.5880387173       17.7748591908
  H         2.0228951523       -0.9284559424       19.1694659347
  C         2.3990321916       -2.2976177748       17.5799080202
  H        17.5298073200        1.5612579744       22.0221348472
  H        18.3315995892        2.8391764289       22.8456935466
  C        16.8012593759        1.8882128633       24.1089206636
  S        11.9604118143        6.6355443016       11.6523187377
  C        11.5748618148        9.2379489849       11.3896185976
  H         6.5034013677       -0.7475625125       37.3746817976
  H         5.7684054468       -1.4276416092       38.9336565158
  H         5.8507342298       -2.3942493207       37.6121911645
  H         3.3461468689       -2.7681020611       17.8074572487
  H         2.2893935223       -2.3303638261       16.4830181442
  H         1.7052836319       -3.0391999583       18.0080999749
  H        15.7326899930        1.5739091186       24.1287963244
  H        16.7951050416        2.6653607096       24.9210543392
  H        17.2588437837        0.9956308514       24.4679926522
  C        12.4440292081        7.5694783171       10.1685305166
  N        12.1146872313        8.8384102884       10.2212601497
  O        11.2040014510       10.3928549933       11.5851648515
  S        13.2666487845        6.8041593772        8.7267478225
  C        12.2496392255        9.7349738761        9.0179635304
  H        12.3180133800       10.7116662960        9.4784654315
  H        13.1669180409        9.5453917293        8.4747167836
  C        10.9853684732        9.6429482228        8.0524473620
  H        11.0203041386        8.6363873891        7.6743116265
  H        10.0944142854        9.8013201629        8.5582466545
  H        11.0913562479       10.4089732514        7.2754333864
  H         2.5357312763        3.1375013515       12.5296895483
  C         3.1224184565        2.2549434539       12.4269821812
  H         2.6037145491        1.5947369152       13.1496715294
  C         2.8361541727        1.6927973980       11.0623702805
  C         4.6024266060        2.4453847168       12.6633909591
  C         3.6390295141        2.2676087153        9.9426855576
  H         1.7273664738        1.7337730309       10.9222382380
  H         2.9273456777        0.6028238357       11.1643063183
  H         4.8409908759        2.7675323558       13.6548352432
  H         4.9405509012        3.2760431117       11.9991672478
  H         5.2315225109        1.5785904983       12.4943212844
  C         4.8343732840        1.3694132211        9.5469088678
  H         2.8610578182        2.4793867047        9.1534545951
  H         3.9512466046        3.2855715368       10.1528383222
  C         5.5589116351        1.6771821496        8.2141329435
  H         4.5645410667        0.3067223707        9.5599122637
  H         5.6030958848        1.4594208995       10.2968142728
  C         6.7037017392        2.6602321169        8.5113744635
  H         4.8359225496        1.8720982878        7.3853958698
  H         5.9380211932        0.7577782688        7.9263493132
  C         7.8938204639        1.9334214857        9.0819723798
  H         7.0551328669        3.1155969131        7.5749601332
  H         6.3668296306        3.5068946932        9.1918728756
  C         9.1822570381        2.8457622297        9.1508968626
  H         8.1078867057        1.0890690944        8.4801207554
  H         7.7068088574        1.5077257686       10.0707631075
  C         8.8755124488        4.1398493098        9.8353639342
  C         9.6409448243        3.5951126485        7.8852007692
  C        10.2158731854        1.9778042808        9.9286106697
  C         9.2113408103        5.2589707975        9.0942521862
  C         8.1505152544        4.5456303219       10.9766853492
  C         9.6014851945        4.9298276078        7.7897214201
  C        10.0873716892        3.0403200616        6.6844413293
  H         9.6450524017        1.7271579023       10.7881443385
  H        10.5630425786        1.0753266986        9.4921853910
  C        11.4190825736        2.9450277447       10.2624878232
  S         8.8097447069        6.8078196746        9.6943705102
  C         8.0710858064        5.9078243448       11.0351700916
  H         7.6953514332        3.8590245282       11.6684256638
  C         9.9611205783        5.6488861810        6.6303815266
  H        10.0244190996        1.9800867591        6.5722226486
  C        10.4252046026        3.6958827924        5.5406025147
  H        11.1788936389        3.9747779365       10.6445720857
  H        12.0901527759        2.9514735978        9.3908376245
  C        12.1873800066        2.2012573622       11.3498111524
  C         7.6111951215        6.6774891244       12.2675138842
  C        10.3786823476        5.0805717204        5.4416485385
  H         9.9649258642        6.6834830818        6.6915062279
  C        10.8777765172        3.3616905787        4.2905238627
  H        13.0687272833        2.7715923144       11.3724532392
  H        12.3639690535        1.1600160394       11.1188911113
  C        11.5856539884        2.4018638342       12.7810424209
  C         7.5332700729        8.0510730663       12.5437248962
  C         7.2299265199        5.8338632085       13.3673709364
  C        10.7519564878        5.8055204264        4.2183750421
  C        11.0511562962        4.4748675472        3.4685123896
  S        11.2285957146        1.8883694643        3.5413114254
  H        10.9956528967        3.2782101176       12.9137656953
  H        10.8584659605        1.5934242466       12.9754771850
  C        12.6741277184        2.4166130658       13.7744069878
  N         7.7612561671        9.0797943686       11.6204338787
  C         7.2909697504        8.5485048611       13.7929531768
  C         6.9612678779        6.3164387595       14.6238666833
  H         7.1907133855        4.8195792976       13.1500424272
  C        12.0852646922        6.6510350006        4.2463756274
  C         9.5755783831        6.6028838089        3.6152186944
  C        11.4193715418        4.1007994818        2.1416175061
  C        11.5899670369        2.7381568526        2.1203059799
  H        13.2274675920        3.3400660596       13.5794639789
  H        13.3183013268        1.6333151849       13.4941198421
  C        12.2360330777        2.5290454333       15.1951942438
  S         7.6240818081       10.5358412398       12.3570977500
  N         7.3230348231        9.9466027757       13.8576098777
  C         6.9978997404        7.7603943570       14.9393699921
  H         6.7204898675        5.6875609330       15.4288765797
  H        12.1626353096        7.2615248955        5.0865970750
  H        12.2049957011        7.3033135721        3.3373412034
  C        13.3561239471        5.7792430349        4.4929386238
  H         9.6270682884        7.6635218817        3.8275089695
  H         9.8479699939        6.4940502539        2.5869666939
  C         8.1374584641        5.9829676127        3.7436699798
  H        11.5207415677        4.8597650678        1.3635403116
  C        11.7595256256        1.9901121455        0.7434179550
  H        12.1296909555        3.6159227308       15.3049839167
  H        11.3106896682        1.9911029742       15.2679128693
  C        13.4479016067        2.2440434299       16.0539815798
  C         6.9217957304        8.3139865767       16.2330817796
  H        13.0391863113        5.0693139432        5.2883252862
  H        13.5335126395        5.0961378567        3.6810085778
  C        14.7298052807        6.3497201283        4.9887843407
  H         7.6988755011        6.1431054460        4.7270494602
  H         8.1532288230        4.8562595699        3.6142386022
  C         7.2113941637        6.4172119205        2.6466988313
  C        11.8593344230        0.6090969037        0.5571471734
  C        12.0699214776        2.7675437430       -0.4728818829
  H        14.2816808336        2.8386079468       15.6758738042
  H        13.8153978218        1.1836572105       15.9416979918
  C        13.2818034083        2.6076896262       17.5408566852
  H         7.1601202037        9.3929925250       16.1908595208
  C         6.4684836567        7.8204446504       17.4693156208
  H        14.5076201737        7.1370577763        5.6269096968
  H        15.1473053752        6.7223348926        4.0760312831
  C        15.6680339413        5.4089358204        5.5954978519
  H         7.3752072367        7.4612537020        2.5587832663
  H         7.4834459592        5.9838362841        1.7612784424
  C         5.7433308623        6.0600962316        2.9919504479
  N        11.6649014138       -0.3179799891        1.5391736866
  C        12.1103192478       -0.0005585184       -0.6076866019
  C        12.3619191217        2.1154589686       -1.7029803656
  H        12.0744386383        3.8690548543       -0.5053146253
  H        12.9217267039        1.7464005726       18.1743280646
  H        12.5840389931        3.4396490438       17.5207311115
  H        14.2490218754        2.8407719076       17.9264539971
  S         6.2357047875        6.1050481721       17.9619448396
  C         6.2037923161        8.8017869704       18.5362318815
  H        15.0302382942        4.9295066181        6.3365417185
  H        16.1430417117        4.5856511453        5.0102958831
  C        16.8640318670        6.1037186582        6.3490603386
  H         5.4521606542        6.6418826369        3.8270617839
  H         5.6487756885        5.0034719624        3.1490805334
  C         4.7059923970        6.3387375315        1.9063863421
  S        11.6272875334       -1.8026970797        0.9929746794
  N        12.0019122940       -1.4078585600       -0.5109437129
  C        12.3932715460        0.6610282944       -1.8279404019
  H        12.5745802907        2.7067542659       -2.5483719460
  C         5.7727688880        6.8156590056       19.5110908640
  N         5.7854528476        8.1491746748       19.6364851154
  O         6.5981023317        9.9767883289       18.3825668524
  H        17.5801005561        6.4065536133        5.6101164802
  H        16.5733864318        6.9938481054        6.9049324107
  C        17.6564549515        5.0674290504        7.1811161814
  H         5.1677922201        6.1415236824        0.9911340422
  H         3.8888256707        5.6763524861        2.1003636919
  C         4.2242097553        7.7831717543        2.0151086736
  C        12.6391333518       -0.0958579267       -2.9905630631
  S         5.2964839744        5.8819400903       20.9412818426
  C         5.5265485227        8.8855541476       20.8286202816
  H        17.0616041651        4.6544979648        7.9937811168
  H        17.8903731779        4.1701033704        6.5837882990
  C        18.7852715865        5.8290296299        7.7456572381
  H         4.3926230785        8.1838856763        3.0507913455
  H         3.1928527189        7.7875704551        1.8778094016
  C         4.8289721280        8.6993889688        1.0949216080
  H        12.2255841048       -1.1162060309       -2.9433585048
  C        13.2829677952        0.2266996700       -4.1608242590
  H         4.8178921009        8.3391892456       21.4008356292
  H         5.0353829152        9.8535631439       20.5947354592
  C         6.7519225463        9.1766266019       21.6972547354
  H        19.0919944279        5.3519680501        8.6969958385
  H        18.4460289777        6.8323429758        7.9766890114
  C        19.9226639259        5.8251475765        6.7884852802
  H         5.9485210692        9.0212401010        1.2470042376
  H         4.6215511371        8.1106835605        0.0912259792
  C         3.9932664941        9.9923947410        0.9874968835
  S        13.9885499988        1.7420171787       -4.5117683836
  C        13.5211130830       -0.8388714749       -5.1488463314
  H         7.6941903760        9.0767589587       21.2108673129
  H         6.8706277110        8.3753354144       22.3649011400
  H         6.8571054320       10.1922562002       22.1684452810
  H        19.7540628313        6.4911607316        6.0045647019
  H        20.8850270681        5.9391368682        7.3011707760
  H        20.0411023057        4.8701344815        6.2810305430
  H         3.6575937713       10.4103421013        1.8932377050
  H         4.5766294025       10.8239460635        0.5612999564
  H         3.1547507806        9.8233065719        0.3101085254
  C        14.4017917735        1.0231913956       -6.0768888374
  N        14.1814324360       -0.3032580659       -6.1981799684
  O        13.0636651634       -1.9866916858       -5.0990360638
  S        15.2705971022        1.6978682820       -7.4564285801
  C        14.3275458121       -1.1485692255       -7.4175400340
  H        14.4737703562       -2.1793513110       -7.1301908347
  H        15.2816012161       -0.9536009853       -7.9752310642
  C        13.0895799669       -0.9126299559       -8.3465945633
  H        13.2380821670       -1.4286210305       -9.2563719751
  H        13.0606703385        0.1122709028       -8.6227646500
  H        12.1769245377       -1.0961746800       -7.8083948502
