352
 i =    58300, time =    29150.000, E =        98.9278645511
  H        10.3593206840        4.1242447401       31.4343773357
  C        10.4487115657        5.1343498736       31.7158033030
  H         9.4684378658        5.5209594290       31.7720281886
  C        11.3097698372        5.8803253943       30.8172012592
  C        11.1550907349        5.1383577933       33.1124966782
  C        11.5264475730        5.3255178737       29.3391153920
  H        10.7622746781        6.8299766632       30.7246169707
  H        12.2300659466        6.1225124810       31.2097349175
  H        10.4478898850        4.6935306718       33.8438129595
  H        12.1817953955        4.6892052552       32.9794501035
  H        11.4351933294        6.1212508865       33.5092086620
  C        10.3541845607        4.5711594564       28.6106081106
  H        12.3197029745        4.5734170923       29.5349585000
  H        11.8428239937        6.1067935367       28.6595639176
  C        10.4380553576        4.9042827372       27.1313621808
  H        10.4691996221        3.5409004729       28.6922071807
  H         9.3966410869        4.8787680592       28.9948380849
  C         9.2121851748        4.4737757585       26.2754413449
  H        11.3827171291        4.4352922767       26.6864219791
  H        10.6094283702        5.9776488812       26.9800663093
  C         8.0456917011        5.4782116165       26.2062278308
  H         9.5747208443        4.2424422664       25.3279587577
  H         8.7815049186        3.5641506528       26.5720153362
  C         6.7074083378        4.9966688409       25.5847226002
  H         7.8641728909        6.0724384653       27.1599643732
  H         8.3341987659        6.3183941610       25.5441195089
  C         6.3508983580        3.6701293557       26.2116562518
  C         7.0058006784        4.3304140691       24.2249732105
  C         5.5282431416        6.0414063144       25.6873609700
  C         6.5314573947        2.5838962092       25.3473552275
  C         5.7953541631        3.2398945353       27.4345654771
  C         6.9433762890        2.9776773908       24.1507666408
  C         7.6046845194        4.8602829524       23.0304875843
  H         5.7365161520        6.8771912640       25.1505702738
  H         5.4592654500        6.3824122468       26.7715749001
  C         4.1923761187        5.5289340321       25.1080749273
  S         6.1007141330        1.0497561812       26.0784571396
  C         5.7614564814        1.8979075824       27.5802532851
  H         5.5039695871        3.9375394688       28.2201055441
  C         7.2219302383        2.2912098019       22.9438107171
  H         7.7124843502        5.9267324210       23.0381132673
  C         7.9165737263        4.1946896708       21.8286220465
  H         4.3433378352        5.7166459810       24.0534825889
  H         4.0718167576        4.4347687187       25.1632710341
  C         2.9376630480        6.3956162625       25.3446000276
  C         5.4396929923        1.1620973466       28.8207665808
  C         7.7546199353        2.8522992619       21.7489995717
  H         6.9405304618        1.2929293278       22.8803284995
  C         8.4218033102        4.5086948749       20.5642682702
  H         2.2321921862        5.9724835641       24.5742105502
  H         2.9781530595        7.4865677418       25.1060124619
  C         2.3406938859        6.3762250368       26.7418726626
  C         5.3098869055       -0.2354900572       28.9687390071
  C         5.1979141168        1.9473509787       30.1140435996
  C         8.2380949822        2.0873674377       20.5415633775
  C         8.6538280944        3.3734890852       19.7344365934
  S         8.8975017624        5.9575606478       19.7947154254
  H         1.6166743925        7.1662422550       26.9727058607
  H         3.1392470091        6.4697825059       27.4602156321
  C         1.7895996106        5.0123686431       27.1805665871
  N         5.5679738897       -1.1770472207       28.0053624637
  C         5.0120218664       -0.8667314825       30.2269199651
  C         4.8555067163        1.3282675828       31.3138915872
  H         5.3106901761        2.9727297313       30.0585749304
  C         7.1626361356        1.1917381543       19.8936317264
  C         9.5211171472        1.2749114599       21.0416241541
  C         9.0981423924        3.7283125293       18.4791170019
  C         9.2920955540        5.1035756531       18.3746981851
  H         1.2285476299        4.5641540831       26.4162851128
  H         2.6861893853        4.4435957788       27.2976315136
  C         1.0772534389        5.1682663888       28.5881246923
  S         5.5587355959       -2.7008093872       28.5868609425
  N         5.0869586417       -2.2403229439       30.1273389812
  C         4.7323594090       -0.1733653811       31.4430866921
  H         4.7023878723        1.9169269481       32.1548526520
  H         6.8454294604        0.4414688069       20.6035958083
  H         7.5622439826        0.6598366422       18.9987892015
  C         5.9563242605        2.0856562220       19.4760617086
  H         9.7936646483        0.4255529562       20.4333517968
  H         9.3399582662        0.8944484230       22.0450795712
  C        10.7855970167        2.2285373241       21.2784816845
  H         9.2320846355        2.9671118847       17.7503386611
  C         9.6758645058        5.9162057604       17.1638652780
  H         0.4570292020        4.3667025044       28.8057968403
  H         0.3593771343        6.0764924437       28.6406294897
  C         2.1036839918        5.2859897052       29.6847683539
  C         4.5821925657       -0.8245813034       32.6971043335
  H         6.2116597925        2.8593211862       18.6982511788
  H         5.5664017601        2.6419085601       20.3522955906
  C         4.8315332057        1.2510905063       18.9100072178
  H        10.5802709864        2.9343439981       22.0509971617
  H        10.9640703557        2.7665036770       20.3699124012
  C        12.0710388570        1.4712055796       21.5667739283
  C         9.7053234758        7.3140403980       17.0747262522
  C        10.0330613631        5.3167480104       15.8901678633
  H         2.7359296129        4.4259884594       29.6055620417
  H         2.6561862425        6.2146537281       29.7392311258
  C         1.4807859440        5.0318611332       31.1292842174
  H         4.7611623606       -1.8369054032       32.6734165740
  C         4.2757469329       -0.3555408124       33.9804835977
  H         4.2027583380        0.8957218458       19.7190868746
  H         5.2117953661        0.4641518839       18.2358393430
  C         3.9130501886        2.1093680270       18.0284908255
  H        11.8281311211        0.7824996245       22.4071384135
  H        12.4991936317        0.9669877175       20.6450719399
  C        13.1154482823        2.4577649085       22.1197138652
  N         9.3542870201        8.0797871297       18.1149046048
  C        10.1316745324        8.0519991439       15.9332726458
  C        10.3393143731        5.9879198343       14.6821333104
  H         9.9284838125        4.2396417593       15.9576258400
  H         2.2373554763        5.2391300857       31.9586684883
  H         0.6478463123        5.7767947519       31.1532189416
  H         1.0080939124        4.0367763979       31.2806006166
  S         3.9637766578        1.2114646978       34.5646957893
  C         4.1508601604       -1.4303966746       34.9899792610
  H         3.9090800814        3.0661693699       18.5163123787
  H         4.4173774059        2.3086652513       17.0921971346
  C         2.5624697577        1.4503905561       17.8380827407
  H        12.6442035167        2.9378112533       22.9715003722
  H        13.4432739323        3.2691479402       21.4261148235
  C        14.4072603871        1.6981468435       22.5108242422
  S         9.5605980553        9.6158316062       17.7069958361
  N        10.1449942084        9.4192363241       16.2306306535
  C        10.4517480684        7.4335924503       14.7331434288
  H        10.4536137613        5.4188248827       13.7577921291
  C         3.7303405058        0.4044538448       36.1429618985
  N         3.7810935454       -0.9146192655       36.1590158850
  O         4.2847545927       -2.6079979610       34.7519457997
  H         2.0371057704        1.9940162232       17.0492378764
  H         1.9779664267        1.6835388952       18.7639989536
  C         2.5275571307       -0.0534823684       17.5148938116
  H        14.2403756728        1.1123574357       23.3778598321
  H        14.6426900030        1.0232426696       21.7088543214
  C        15.5484021933        2.6676786647       22.8963227768
  C        10.8720454745        8.2157027718       13.6032421274
  S         3.4726404642        1.2017922531       37.6896731691
  C         3.6565227622       -1.7232064394       37.3333125441
  H         2.1886713887       -0.1430766614       16.4528251179
  H         3.4967690617       -0.4437117043       17.5620598875
  C         1.7444968312       -0.9542301279       18.4370568219
  H        15.5151101120        2.8475662852       23.9128785480
  H        15.3958129287        3.6004767353       22.3480596121
  C        16.9173582260        2.1423904268       22.6424904860
  H        10.5385357614        9.2286465253       13.8236675088
  C        11.5961270278        7.9798040272       12.4188433588
  H         3.0486954814       -1.3704278073       38.1283775149
  H         3.1894659208       -2.6758020453       37.0943445433
  C         5.1052595628       -2.0047951449       37.9601675914
  H         0.6512613022       -0.7310751898       18.4542446571
  H         2.1036619217       -0.7097227663       19.4933658313
  C         1.9752794717       -2.4864894923       18.2428392793
  H        16.8889453764        1.4454569737       21.7583888164
  H        17.6739170356        2.8992213512       22.4627544783
  C        17.5661267455        1.3296221605       23.7082395003
  S        12.1708671850        6.4602055977       11.9248043849
  C        11.6985070594        9.0496366373       11.4291781974
  H         5.2536039611       -2.9490945422       38.5747870722
  H         5.8070576050       -2.1027235018       37.1741067202
  H         5.3046476131       -1.2246996355       38.7099969919
  H         1.0513139718       -3.0854414726       18.4680259432
  H         2.7355317881       -2.7943205725       18.9838792395
  H         2.2907097286       -2.6379239030       17.2255988605
  H        18.5214749273        1.0355182082       23.3704278570
  H        16.8876815291        0.5237717647       23.9998798175
  H        17.6914643193        1.9587089038       24.6540696282
  C        12.4578256045        7.2057398886       10.3187995739
  N        12.2590134101        8.5378012940       10.3141892155
  O        11.1518319368       10.1266068183       11.6310431191
  S        12.9638299984        6.3124158288        8.8645889187
  C        12.5365221484        9.4256157799        9.2381245879
  H        12.4362763373       10.4599934852        9.5676324477
  H        13.5958207595        9.2919094864        8.9685649983
  C        11.5515366839        9.2139426928        8.1850050018
  H        11.2884210688       10.1982300342        7.7596054777
  H        11.9314309386        8.5611394151        7.4221408090
  H        10.6495900188        8.8216095126        8.5446494673
  H         4.0339503593        1.1919504705       12.6822807952
  C         3.4362768522        2.0891415088       12.6688732573
  H         4.1363850455        2.9104753955       12.8905008359
  C         2.6992068750        2.2486700262       11.3422788091
  C         2.6078069151        2.2072249793       13.9248926458
  C         3.5559710763        2.4658821276       10.1199808535
  H         1.9482314697        3.0316529171       11.5038169027
  H         2.1801778245        1.3374827657       11.2184632027
  H         1.5802441788        1.8982912451       13.7337453708
  H         2.5064755620        3.2463733581       14.3576308417
  H         3.0152731861        1.6297277974       14.6856670893
  C         4.3536300252        1.1577804400        9.7648129621
  H         2.8918561167        2.6317989406        9.2500268810
  H         4.2442666090        3.3233413152       10.3142931595
  C         5.1956536727        1.5082995698        8.5566579097
  H         3.6029766701        0.3648435375        9.5015322525
  H         4.9789023407        0.8218963203       10.5533335568
  C         6.4314623289        2.3113143792        8.6983636782
  H         4.5400763807        1.9462628043        7.8324718022
  H         5.5883206687        0.6272714005        8.0066702076
  C         7.6694159140        1.5759792176        9.2226049748
  H         6.7363658483        2.6536070402        7.6925969127
  H         6.2178645136        3.2004360851        9.2508322314
  C         8.9834160186        2.4930302502        9.4396087468
  H         7.9513036304        0.8934539496        8.4451668943
  H         7.5535201382        1.1217144226       10.2626571565
  C         8.6544187561        3.7989696077       10.0240130412
  C         9.3851176779        3.1875009748        8.1982431880
  C        10.1117646973        1.8403816278       10.2076662125
  C         8.9331725002        4.9177114119        9.2994276782
  C         8.1864124302        4.2213072961       11.3099509317
  C         9.4451573250        4.5658734668        8.1142955413
  C         9.8495707681        2.6367681588        6.9955007385
  H         9.6978338962        1.4986788331       11.1527571775
  H        10.4159341770        0.8370634635        9.7292927273
  C        11.4457359113        2.5319726199       10.2622526256
  S         8.5733391999        6.4482734500       10.0928729420
  C         8.0531905571        5.5818745417       11.4514004130
  H         8.0580482502        3.4190588563       12.0634918544
  C         9.9307349064        5.2089660067        7.0106317738
  H         9.7102231198        1.5614831440        6.9532540971
  C        10.3112524296        3.2532328287        5.8748080330
  H        11.2230062651        3.5788413027       10.5490954070
  H        11.9732335248        2.5068295803        9.2862539380
  C        12.3945045484        2.0039222059       11.3427127529
  C         7.5665023191        6.2898054695       12.6924543200
  C        10.4047041519        4.5887596898        5.8301255529
  H        10.0599711766        6.2856509993        7.0128110559
  C        10.7825982414        2.9664352326        4.6182322389
  H        13.3239379802        2.5511358912       11.1550887976
  H        12.5697919236        0.9568839531       11.2436733756
  C        11.8691794281        2.4874230953       12.7197068594
  C         7.5059962843        7.6904075875       12.9213406984
  C         7.1292324644        5.4421178934       13.8113026048
  C        10.8763264723        5.3810235316        4.6278172876
  C        11.1478143190        4.0645424885        3.8646164613
  S        11.1035332995        1.4400733615        3.8261705058
  H        11.9111759781        3.5570427850       12.6969409437
  H        10.7555190212        2.3260416110       12.9100595881
  C        12.7533085676        1.9243765168       13.8442745652
  N         7.8145838753        8.6796759685       11.9939863597
  C         7.0878258738        8.2569815054       14.1546604481
  C         6.7874810391        5.9722810293       15.0582648258
  H         7.1821727216        4.3848045232       13.7418555180
  C        12.1424622515        6.2679898936        4.8184676396
  C         9.6599674741        6.1685319223        4.0455252904
  C        11.5269224725        3.6415224739        2.5529341248
  C        11.5771231224        2.3002300788        2.4059228432
  H        13.8122324202        2.1581541347       13.6279189730
  H        12.7992579135        0.8232490229       13.6731829373
  C        12.1936628218        2.1149570863       15.1519520054
  S         7.7022035899       10.1573590387       12.7114010559
  N         7.1393413366        9.6506039318       14.1629757578
  C         6.7369265221        7.4501639974       15.2897335034
  H         6.5799685027        5.3365369745       15.8748105378
  H        11.8508932121        6.9746671923        5.6571792703
  H        12.4161356023        6.7933171838        3.9643671514
  C        13.4194154444        5.6027042902        5.2904648675
  H         9.2065249965        6.6950072248        4.8299884408
  H        10.0661403447        6.9641700778        3.3733070919
  C         8.5493826651        5.4245540442        3.3129121632
  H        11.7419473963        4.4365353347        1.8591827443
  C        11.8257160294        1.6104447558        1.1064715722
  H        11.9256774147        3.1729734458       15.3162661061
  H        11.2371100615        1.5361164921       15.3020498715
  C        13.1628960570        1.7288822254       16.2334505214
  C         6.3091946876        8.0656618344       16.4720257458
  H        13.2285563853        4.9800436261        6.1920083351
  H        13.8186005142        5.0453853848        4.4771524358
  C        14.5527740855        6.6006087458        5.5104506615
  H         8.3543576222        4.5359424113        3.8630243822
  H         8.9239856506        5.2099424285        2.2910140305
  C         7.2840569702        6.3249361270        3.0485398400
  C        11.8538616699        0.2364182540        0.8875750043
  C        11.9904014761        2.3586392475       -0.1621197827
  H        14.1213402771        2.3395861089       16.0786306534
  H        13.3747500258        0.6848279876       16.2771845344
  C        12.4804833595        2.0244233470       17.5306139724
  H         6.1463714395        9.1496357225       16.4132120630
  C         6.1206101095        7.6362370142       17.7626789299
  H        14.3455292553        7.2581887869        6.3723551480
  H        14.5007603844        7.2054853115        4.6088134459
  C        15.8352467312        5.8002625332        5.7695729815
  H         6.9557444209        6.8330121853        4.0021136586
  H         7.5100224343        7.0027925414        2.2374531328
  C         6.0976557022        5.5083193867        2.6099107703
  N        11.6391752269       -0.7221578928        1.8689050595
  C        12.0422719822       -0.3580337465       -0.3305193552
  C        12.1933030952        1.7598455904       -1.3983090213
  H        11.9679596464        3.4235418686       -0.0128143103
  H        12.1749537949        3.0928797480       17.4489016319
  H        13.1880873016        2.0155771467       18.4232069002
  H        11.4941133261        1.4827703444       17.7089433937
  S         5.8283865169        6.0073002741       18.2502364242
  C         5.9933619302        8.6498805562       18.8435908953
  H        15.8117234425        4.7204260961        5.3709968441
  H        16.5837333430        6.2982046015        5.2371912341
  C        16.1817527231        5.7043228611        7.2678172421
  H         5.5415948101        4.9796618092        3.3965199138
  H         6.4169429077        4.6374433547        1.9623851558
  C         5.0600136146        6.3979334064        1.8319349536
  S        11.5678996016       -2.2111385399        1.1817718619
  N        12.0115296659       -1.7526373283       -0.2889561221
  C        12.2903057509        0.2744567299       -1.5319863730
  H        12.2054179309        2.3926516085       -2.2946350117
  C         5.4994949850        6.8000445546       19.8403291609
  N         5.6001382560        8.1123079120       19.9727349214
  O         6.2120933589        9.8781753887       18.6888840557
  H        16.0147038581        6.7067545476        7.8218544535
  H        15.5438679802        5.0019477879        7.7850366210
  C        17.6450634694        5.1435272467        7.3835303176
  H         5.5879651025        7.3155208688        1.5021944895
  H         4.5965447745        5.8520064923        1.0048810134
  C         3.9123216125        6.9121524611        2.7449395493
  C        12.5789414574       -0.5911538549       -2.6548552309
  S         5.1137958518        5.8848671137       21.3204227841
  C         5.6195284111        8.9369980720       21.1827536679
  H        17.7766278932        4.7911380403        8.3956319784
  H        17.8221011910        4.2184263216        6.8131134846
  C        18.7353259460        6.2258396208        7.2228761184
  H         4.0792934374        6.7131842122        3.8109280064
  H         3.0021239557        6.4125913835        2.4261568247
  C         3.7559871342        8.4219977210        2.7249010403
  H        12.1689565141       -1.5652012902       -2.6527478540
  C        13.0838304335       -0.2989733408       -3.8971363793
  H         4.8263831793        8.6086700768       21.9242360552
  H         5.2328961980        9.9704968867       20.9996303263
  C         6.8360992695        8.8078347734       21.9925286730
  H        19.2985713005        6.2745071349        8.1312878317
  H        18.4887192668        7.2335828156        7.0749376682
  C        19.7171198499        5.8027601937        6.1182610684
  H         3.0413021529        8.6529545873        3.5134742815
  H         4.6180657825        9.0175486661        3.0475377692
  C         3.2087527063        8.9627556770        1.4196912941
  S        13.6697545175        1.2195815575       -4.4698323073
  C        13.1501752615       -1.3053068602       -4.9394173321
  H         6.6151928357        8.1032138687       22.8194786078
  H         7.0526991141        9.7677314457       22.4783041981
  H         7.6934028262        8.6542243207       21.3648533984
  H        19.3228814645        5.9228466479        5.1700010606
  H        20.6573527287        6.3971433185        6.1591145231
  H        19.9493622763        4.7212458348        6.2590363313
  H         3.2328887190       10.0360817641        1.5348487725
  H         3.7732202132        8.6530796622        0.5308344321
  H         2.1955306865        8.6099162313        1.2618185962
  C        13.8281639092        0.5339441197       -6.0614592402
  N        13.6434792058       -0.7854184399       -6.1205394235
  O        12.8466299268       -2.5055004146       -4.7701286019
  S        14.4770897716        1.3912084695       -7.5010262725
  C        13.8564270668       -1.5850979084       -7.3064942009
  H        14.2060138450       -2.6168469900       -7.1052867436
  H        14.7639416570       -1.2457130884       -7.8175797579
  C        12.7157498013       -1.4448925076       -8.1675908820
  H        12.5993848936       -0.5198930392       -8.7436136845
  H        11.8119010375       -1.7365775196       -7.7247303634
  H        12.8743661630       -2.1560496462       -8.9396241478
