352
 i =   132100, time =    66050.000, E =        99.4793529266
  H        10.0726645564        4.7984374077       32.5334235936
  C        10.8933801212        5.5654522421       32.6720659599
  H        10.3084736745        6.4005694895       33.0151542486
  C        11.5295438964        5.7437243693       31.2956970030
  C        11.9485204946        5.0407620513       33.6179771870
  C        10.4408118780        5.7156280595       30.2072956263
  H        12.1757617153        6.5844884002       31.1476107119
  H        12.1237742999        4.8386684736       31.0325778365
  H        12.8858888945        4.8726099392       33.1061479212
  H        12.1637979302        5.7737195125       34.3773371010
  H        11.5886770272        4.0598277385       33.9800134107
  C        11.0932053660        5.4164745412       28.8283913875
  H         9.9269846371        6.6541327547       30.2743038982
  H         9.7785364215        4.9885289384       30.5401666457
  C        10.3937888055        6.1262014912       27.7459683002
  H        12.0936381943        5.7889379932       28.8430786636
  H        11.2638024982        4.3486105526       28.7066730746
  C         9.4221260591        5.2291673531       26.9838757353
  H        11.1665489914        6.6080415646       27.1175991284
  H         9.7948163267        6.8812774629       28.3012820946
  C         8.3444415389        6.1473734223       26.3145985823
  H         9.9447887581        4.5974184086       26.2551092375
  H         8.9512981182        4.5539662794       27.7151294456
  C         7.2007373607        5.4467771752       25.6397232979
  H         7.9535356551        6.7677337762       27.1440025057
  H         8.7602221891        6.8013816886       25.5404204601
  C         6.8788371289        4.0948923089       26.2657296475
  C         7.7216535548        4.7881188325       24.4241771717
  C         5.9081760338        6.3452967325       25.4159423683
  C         7.1420457403        3.0315655209       25.4510543040
  C         6.2420707914        3.6863439167       27.4843732317
  C         7.6674073257        3.4671744293       24.2400119304
  C         8.1577750910        5.4549628330       23.2606288748
  H         6.1162782683        6.9581849843       24.6015084256
  H         5.7751241311        6.9563579290       26.2879205462
  C         4.6151080733        5.5781643684       24.9776431416
  S         6.8039115413        1.4648622943       26.1818314898
  C         6.2225349984        2.3269521655       27.5698405146
  H         5.9651230711        4.4327926384       28.2396997240
  C         8.0276618816        2.8310274089       23.0593550901
  H         8.1365098304        6.5137340137       23.2847065680
  C         8.5297539658        4.8127660412       22.0908855433
  H         4.7343376042        5.4886846545       23.9064316746
  H         4.5457394149        4.5273092157       25.3698427059
  C         3.2784461367        6.3230624054       25.1874519401
  C         5.8457686498        1.5278402430       28.7813623117
  C         8.5481269407        3.4983423251       21.9787422545
  H         8.0428766794        1.7526066075       23.0429634799
  C         9.0002084551        5.2160274965       20.8327039259
  H         2.5081547555        5.8612992651       24.5500077383
  H         3.4074235016        7.4280940077       24.9519909335
  C         2.8081207623        6.2388059133       26.6197184199
  C         6.1037951713        0.1749692347       29.0122481513
  C         5.2925433282        2.2539060331       29.9899715160
  C         8.9081050116        2.7609142245       20.7353863116
  C         9.0846514754        4.1111770420       19.9789022671
  S         9.3708141105        6.6955604389       20.0609906153
  H         2.0212580508        6.8720549783       26.8049535331
  H         3.6020208332        6.5949558453       27.2480317233
  C         2.2479820986        4.8172033121       27.0417509384
  N         6.6327739955       -0.7678655348       28.0951340100
  C         5.9146343515       -0.4238559710       30.2516899420
  C         5.0241168804        1.5917677530       31.1951444156
  H         4.8414094770        3.1973487999       29.8203062835
  C         7.7041841587        1.9850416042       20.0380039462
  C        10.1306086913        1.9432753686       20.9376609051
  C         9.4654843195        4.5267202912       18.6645819580
  C         9.5065656764        5.8592889284       18.5325735940
  H         1.8837026120        4.1861758190       26.1560899762
  H         3.0964817738        4.2556598346       27.3995135392
  C         1.1949091281        4.7979917524       28.1797077743
  S         6.7529162735       -2.2288610531       28.7995698005
  N         6.1780103892       -1.8139915131       30.2367246332
  C         5.3775999407        0.2031769525       31.3698280182
  H         4.6708799311        2.1639822110       32.0572493705
  H         7.4592445044        1.1458605727       20.6679905816
  H         8.1471408534        1.6378145518       19.1334670116
  C         6.4304286491        2.7583305870       19.7306104433
  H        10.3988047943        1.5339828338       20.0050659945
  H         9.9252347877        1.0667347697       21.5673473322
  C        11.2943672436        2.8222190904       21.5262848237
  H         9.5277005282        3.6762865468       17.9952358921
  C         9.8768252655        6.6634282238       17.2707993935
  H         0.8850488923        3.7477778363       28.5010444749
  H         0.3624229565        5.3177191214       27.6272668756
  C         1.4985649976        5.6802473365       29.4186890507
  C         5.3004383837       -0.5365058433       32.6448357212
  H         6.6173557833        3.7049729858       19.1962879989
  H         5.9506899516        3.1521972586       20.6576161083
  C         5.2443517041        1.9716739374       19.2351190542
  H        10.9609792105        3.4110301211       22.4612786671
  H        11.5436780004        3.5298794215       20.7363793920
  C        12.5552794743        1.9103669930       21.8342279908
  C        10.0777915319        8.0462536525       17.1768029139
  C        10.0345203993        5.8394057849       16.0093124177
  H         1.7615408272        6.7524465221       29.1342492698
  H         0.6238322444        5.8377987738       30.0049049384
  C         2.6666791638        5.1359536580       30.2329710014
  H         5.3485932847       -1.5734146814       32.4943939953
  C         4.9356204696       -0.1169320897       33.9113717345
  H         4.5025812642        1.6418581581       19.9881220581
  H         5.4347314433        1.0633674696       18.6564415314
  C         4.4621287198        2.7035208766       18.1393522254
  H        12.2982602210        0.9450802100       22.3171241361
  H        13.1772551105        1.6802667877       21.0317024686
  C        13.4888716497        2.6461771224       22.8786398644
  N         9.9468619999        8.9048724836       18.2381115568
  C        10.5609977540        8.6427389568       16.0218663729
  C        10.5608145213        6.3791880717       14.8604886888
  H         9.9778309198        4.7833689486       16.0206361431
  H         2.8934806535        5.8299734625       31.0084971433
  H         2.2837334066        4.2067629668       30.6616130172
  H         3.4648856203        4.9094618721       29.5286676169
  S         4.7158728986        1.5086071358       34.5695395459
  C         4.9143344215       -1.1462263420       34.9821919396
  H         4.1568284072        3.7314149751       18.4483982603
  H         5.0282916179        2.8255897408       17.1805942632
  C         3.1544193886        2.0026235747       17.6775867895
  H        12.9228835464        2.5174272222       23.8421220367
  H        13.5947940453        3.7300111637       22.7051254239
  C        14.8550267815        1.9958360818       23.1068597804
  S        10.1132191375       10.3748345013       17.5976243812
  N        10.5880761356       10.0317197707       16.0957925954
  C        10.7131705042        7.9007878241       14.8370930960
  H        10.5236989281        5.8172992477       13.9155353179
  C         4.5873722689        0.7379272204       36.1287515837
  N         4.5947254228       -0.5895097433       36.1676600138
  O         5.2561318399       -2.3404030714       34.8288271423
  H         2.5576485301        2.6162497854       16.9414397542
  H         2.4751179469        1.8536829518       18.4930487955
  C         3.3864155360        0.6234919858       17.1197521318
  H        15.2602767685        2.2909858800       24.0778396265
  H        14.8445719111        0.8288972469       23.2621103552
  C        15.8173666533        2.3337951596       21.8935145981
  C        11.1452439256        8.6561288847       13.6868873839
  S         4.4617186783        1.6295735381       37.6612608850
  C         4.4346220234       -1.3585411368       37.3841043101
  H         2.6941589688        0.5045040304       16.3047767837
  H         4.4309895445        0.4664028289       16.8712212150
  C         2.9614431286       -0.4169061423       18.1004466567
  H        15.9694182895        3.4007280716       22.0450253697
  H        15.2679194248        2.2025111512       20.8971378519
  C        17.1528520869        1.5743187335       21.8080030743
  H        11.1070309938        9.7616512369       13.7716413228
  C        11.6274198554        8.3504815178       12.4266563947
  H         3.6934801747       -0.8961279973       38.1122088288
  H         4.0003600373       -2.3188959902       37.1429205465
  C         5.7991581203       -1.5609954081       38.0576125715
  H         2.0359082869       -0.1336725864       18.4406254405
  H         3.5801732437       -0.5274811333       18.9233759422
  C         2.6758006315       -1.7654241218       17.4007401810
  H        16.9849264695        0.6011153583       21.3814879745
  H        17.7885751117        2.0867449173       21.0866964942
  C        17.9395019858        1.3928893815       23.1402481411
  S        12.0669121599        6.7997769487       12.0412727188
  C        11.7530005921        9.3199536081       11.2596263093
  H         5.9082781751       -1.0005092878       39.0141612593
  H         5.8567128574       -2.6584922242       38.2387032352
  H         6.6747512376       -1.3520907628       37.4618976714
  H         1.7721655498       -1.7147799868       16.8777826441
  H         2.7124674640       -2.6215422482       18.0976409841
  H         3.4396178808       -1.9539561676       16.6212233963
  H        17.4602087043        0.7286298385       23.9448356934
  H        18.1457881103        2.2932374520       23.7410948526
  H        18.9101347087        0.9538210825       22.9892016301
  C        12.3413786504        7.3193649912       10.3639210379
  N        12.1484197447        8.6506000094       10.1448222031
  O        11.3078947103       10.4901599863       11.3407239428
  S        12.6284740986        6.2070761174        9.0148552033
  C        12.2597472988        9.3298823124        8.8896018431
  H        12.6429175988       10.3166718350        9.1589393824
  H        13.0342027106        8.7905442002        8.2997654036
  C        10.9448244106        9.2615574473        8.0800157858
  H        10.0981904056        8.8168994362        8.6214236558
  H        10.7291997457       10.1892057583        7.5182514080
  H        11.0382760748        8.6272015251        7.1563374009
  H         4.6124755209        1.3636540865       12.8403347133
  C         4.3239574765        2.4530419421       12.9401733644
  H         5.2841922577        2.9871050535       13.0956664094
  C         3.6812896386        2.9632408388       11.6523354911
  C         3.3848159125        2.6090634080       14.1121627538
  C         4.5673734669        3.2396751430       10.4685733012
  H         3.3259939451        3.9913312499       11.9039824601
  H         2.7933706098        2.4307860342       11.4886641963
  H         3.9938223315        2.6084099456       15.0424067077
  H         2.6497986291        1.7986685878       14.2057097984
  H         2.8861735246        3.5113183424       14.0935228319
  C         4.8349435506        1.8487624850        9.8167817542
  H         4.0331845242        3.9425922130        9.8411689223
  H         5.5395012504        3.6688739117       10.7566193977
  C         5.4959651526        1.9197424621        8.4336302388
  H         3.8154868494        1.4096513866        9.7283376978
  H         5.5257529742        1.2111149697       10.3995551057
  C         6.7935418190        2.7936447465        8.4337371538
  H         4.8155703533        2.1982440654        7.6835724231
  H         5.6159280610        0.8508780268        8.2799850150
  C         8.0090114080        2.0980902995        9.0124330627
  H         6.9115854811        3.0448004893        7.3972189314
  H         6.5945612512        3.6790756059        8.9594244933
  C         9.2519758434        2.9261983225        9.2727991576
  H         8.4032614221        1.3953511362        8.2665101344
  H         7.7396694483        1.6220142578        9.9938778447
  C         8.8664520384        4.2302569093       10.0257862198
  C         9.7746192698        3.7132596719        8.0856036169
  C        10.5278782470        2.2140626356       10.0175988629
  C         9.0839574425        5.3468378872        9.2362950570
  C         8.3267359510        4.5664974469       11.2610104386
  C         9.6501238110        5.0335133920        8.0127081575
  C        10.1290423809        3.1423767567        6.8599085688
  H        10.1718829425        1.8018336358       10.9711379101
  H        10.7938880109        1.5176149870        9.2805911043
  C        11.7423484195        3.1590348884       10.3108242039
  S         8.6292714988        6.8274808904       10.0172527190
  C         8.2480596015        5.9264040479       11.4129532839
  H         8.0336197028        3.8376285890       12.0070486499
  C        10.0999616356        5.6930826112        6.9054722299
  H        10.1246126609        2.0515467110        6.9576714989
  C        10.5952238482        3.7127684429        5.7366347235
  H        11.4122048888        4.1494362494       10.5838371427
  H        12.3583379374        3.4242946480        9.4484136198
  C        12.7608728177        2.6435874921       11.2673577472
  C         7.6865293068        6.6205699819       12.6732209995
  C        10.5872650921        5.0810808543        5.6957644432
  H         9.8958534727        6.7403216554        6.7681913878
  C        11.0121084161        3.3584256930        4.4669171618
  H        13.7843659966        2.9135974720       11.1129381959
  H        12.7507614900        1.5311898149       11.2540013864
  C        12.4843295846        3.0550782597       12.7283479254
  C         7.8059751177        7.9982629262       12.9065605374
  C         7.1917577382        5.8913861325       13.8542498593
  C        11.1023133167        5.7378976250        4.4413406989
  C        11.4177937971        4.4433963725        3.6821042281
  S        10.9824187461        1.8394651722        3.6327926611
  H        12.9762928246        3.9603207894       12.7551995365
  H        11.4207601018        3.3584520280       12.8673677924
  C        13.0233101610        2.0263218255       13.7491835097
  N         8.3110161879        8.9737991290       12.0161693004
  C         7.5560807488        8.5424116448       14.1628386052
  C         6.8167708036        6.5097504662       15.0794034396
  H         7.0823963261        4.8115171143       13.6986716033
  C        12.4417368858        6.4712530704        4.7973066836
  C         9.9510591221        6.5021941837        3.7577651630
  C        11.7552527853        4.0175657537        2.3533613079
  C        11.5678707935        2.6528333716        2.2328872169
  H        14.0451189918        1.7053867477       13.5759968464
  H        12.3774149363        1.0929901003       13.7468647975
  C        13.1375967158        2.7161007875       15.0825025301
  S         8.1883923677       10.4870228628       12.6116608287
  N         7.7911100416        9.9373793631       14.1422860673
  C         7.0702475152        7.9485904035       15.3169481207
  H         6.3903691433        5.9296377976       15.8397309558
  H        12.1932424236        7.1054700073        5.6367028354
  H        12.8577749293        7.1426856655        4.0011684145
  C        13.4871919895        5.5194084131        5.4368119958
  H         9.4253305286        7.2455948276        4.4768603811
  H        10.3814248161        7.1481609627        2.9884688475
  C         8.8424926156        5.6268703382        3.1073649769
  H        11.9614776211        4.7405159155        1.6250782767
  C        11.8155150454        1.8856163553        0.9883393549
  H        14.1727889045        3.0024354856       15.2338340500
  H        12.5763086255        3.6226519085       15.1116442699
  C        12.8363527196        1.7203113169       16.1634433294
  C         6.8573196999        8.7262717471       16.5652446864
  H        13.0802233123        4.9415195771        6.2699976317
  H        13.8283261395        4.7177547093        4.7815160206
  C        14.6519381693        6.3152187907        5.9599630572
  H         8.4511563639        4.7776535392        3.7132858334
  H         9.2892017527        4.9955688693        2.3406315852
  C         7.7031907811        6.4062894062        2.4449185566
  C        11.8001845641        0.4614949440        0.8942367659
  C        11.9255057347        2.6027511224       -0.3428268572
  H        13.6958146829        0.9878740009       16.2954136090
  H        11.9362303212        1.0646353014       16.0399129519
  C        12.7296152667        2.4009386659       17.4784376349
  H         6.4878610479        9.6830696871       16.3870195218
  C         6.5497769653        8.2799938884       17.7970451391
  H        14.3118569686        7.0582260716        6.6576060652
  H        15.1491196029        6.8383880137        5.1070287778
  C        15.6403684942        5.3593616134        6.4087869275
  H         7.2724136756        7.0728295906        3.1533977460
  H         8.1811679087        7.0045574422        1.6514190361
  C         6.5407881959        5.6103023511        1.9294432887
  N        11.6365157373       -0.4400360965        1.9992917547
  C        11.9454684967       -0.2378775138       -0.2983782165
  C        12.1111945908        1.9173583238       -1.5449876357
  H        11.8074828264        3.6928017084       -0.4154037460
  H        12.1227888130        3.2959704543       17.2807133278
  H        13.6700118074        2.8077077256       17.8551199296
  H        12.1809970688        1.8974759521       18.1952263921
  S         6.2778091830        6.6901736696       18.2685743642
  C         6.7117951929        9.2594545756       18.9006274250
  H        15.4956311556        5.2684542823        7.5163189970
  H        15.6395372345        4.4218528052        5.9330692441
  C        17.0405464848        6.0751957997        6.3203779001
  H         5.7745303579        5.4063654101        2.6572570001
  H         6.8986971301        4.6545457301        1.5878580555
  C         5.9062433494        6.3690790749        0.8098110995
  S        11.7456783102       -1.9514122905        1.4867227004
  N        12.0066100038       -1.5791237118       -0.1068066217
  C        12.2015747428        0.4146057805       -1.4919011347
  H        12.1589235133        2.4628819963       -2.4585271415
  C         6.0883775087        7.4101339153       19.9175822238
  N         6.3110353825        8.6829537200       20.0276072563
  O         7.0470417531       10.4163392889       18.7258665421
  H        17.3045942219        6.0462456847        5.2169236484
  H        17.0760965889        7.0901960966        6.6645180340
  C        18.1577684102        5.2358303806        6.9796446663
  H         6.6230412858        6.8845781465        0.2126130207
  H         5.2256453647        5.6697415071        0.1717195446
  C         5.0008433667        7.4871023943        1.4229616999
  C        12.4402648043       -0.3610516880       -2.6519357033
  S         5.7120043885        6.4585477350       21.2670051132
  C         6.3759925377        9.4276231577       21.3347079403
  H        17.7537204429        4.7325332406        7.8123863606
  H        18.3447865653        4.4261890070        6.3000533917
  C        19.3523513595        6.1310171249        7.4278811644
  H         5.3651597902        7.9440749239        2.3661457570
  H         4.1118836177        7.0138113716        1.7511165895
  C         4.6040065678        8.5722493200        0.3502064542
  H        12.1073537508       -1.3935161934       -2.7881147858
  C        13.0912359842       -0.0075675033       -3.8163577737
  H         5.6746324971        8.9509919348       22.0311905578
  H         6.0882558990       10.4673042291       20.9973628502
  C         7.7949215453        9.2737763338       21.8505426999
  H        19.6536863373        5.8144146815        8.4322737046
  H        19.0157043045        7.1477693598        7.4630571144
  C        20.4002314971        6.0276121912        6.3050294531
  H         5.4936661440        9.0970907544        0.1088299764
  H         4.2651915359        8.2406609419       -0.5387452969
  C         3.5357926323        9.4854160656        0.9152961911
  S        13.7491692083        1.5157585481       -4.2422924037
  C        13.2758199414       -1.0998913196       -4.8578733665
  H         7.9277555482        8.3906335776       22.4274703779
  H         7.9841524068       10.1300610219       22.5248582924
  H         8.5776630834        9.2583540202       21.0382629863
  H        20.8063320559        5.0471750465        6.3274622190
  H        19.9969241804        6.1363854594        5.3823126467
  H        21.2351650054        6.7365666034        6.2766958928
  H         3.8818187301       10.4551777859        1.3582461988
  H         2.8430051572        9.6109835360        0.1333064886
  H         3.0078578906        8.9813008343        1.7024621972
  C        14.2062302092        0.6794736499       -5.7332727785
  N        13.9727792579       -0.6318769488       -5.8765484858
  O        12.7954806186       -2.2280668410       -4.8291070647
  S        14.9868424177        1.5567707466       -7.0559908183
  C        14.2489256916       -1.3764947881       -7.0958780856
  H        14.3928169747       -2.4389295560       -6.7740198182
  H        15.1572915771       -1.0833950268       -7.5567609229
  C        13.0983249181       -1.1260922497       -8.1225007948
  H        13.1833871452       -1.8274070653       -8.9216269268
  H        13.2605885506       -0.1622387207       -8.6014915858
  H        12.0703353743       -1.2670772718       -7.7371497375
