352
 i =    15400, time =     7700.000, E =       113.3652314670
  H         9.6026316310        5.5845435695       32.9496546548
  C        10.5957027882        5.9873130144       32.7962466450
  H        10.6423830527        6.8471881692       33.4536996354
  C        10.8119172275        6.4119741846       31.3899009595
  C        11.5109676278        4.8098010415       33.3370827638
  C        10.9268044757        5.2904227993       30.3025058401
  H         9.9078984526        6.9382967363       31.0769231980
  H        11.5833862957        7.1473875709       31.2796079236
  H        12.1093768241        4.4556546326       32.5410095229
  H        12.0896681250        5.1029829160       34.1999956635
  H        10.8319773959        4.0005012815       33.5722996341
  C        10.0756619371        5.6321121562       29.1124968015
  H        10.6850386188        4.3517932832       30.8333897510
  H        11.9451704417        5.1116662789       29.9683985699
  C        10.7807739072        5.3456775698       27.8150156763
  H         9.1671932265        5.0805743512       29.1631995860
  H         9.7529699812        6.7269578029       29.1201819292
  C         9.9889096152        4.8282593905       26.6274155346
  H        11.5295860719        4.5111148899       28.0186982211
  H        11.4443705067        6.2017011465       27.5624033926
  C         8.7463469390        5.7593436655       26.3376723770
  H        10.5200391683        4.7418953179       25.7110887653
  H         9.6426581890        3.7901365064       26.9009610937
  C         7.5181081479        5.2161067137       25.4939270751
  H         8.3427272910        6.1246021876       27.2846923123
  H         9.1393648718        6.6319839603       25.7767511526
  C         7.0414809330        3.8315918736       26.0861899041
  C         8.0149346419        4.4617790927       24.2327144458
  C         6.3125494447        6.1541163548       25.2043891223
  C         7.1884868109        2.7869955916       25.3057925667
  C         6.5182330405        3.5379311909       27.3460046052
  C         7.7248799111        3.1361456902       24.0750165471
  C         8.5143105151        5.0799079546       23.0953250160
  H         6.4848049358        6.8412050516       24.3637546664
  H         6.1204138639        6.5854718130       26.1156112996
  C         5.1121816045        5.4586292831       24.7235967120
  S         6.7499342733        1.2569842635       26.0641403475
  C         6.3004383462        2.1535239433       27.3998524959
  H         6.4332187823        4.3258376260       28.0765403678
  C         8.1098421297        2.4960735895       22.9104085384
  H         8.6130894494        6.1378285675       23.1903669836
  C         8.8329539086        4.4237912907       21.9361717058
  H         5.5672583329        5.1033489802       23.7292560995
  H         4.8762909917        4.6425731123       25.3066968282
  C         3.8629135167        6.3018281512       24.4831314408
  C         5.8205794690        1.4812377639       28.6657356296
  C         8.7102932906        3.0948503825       21.8119068841
  H         7.9567981458        1.4020788730       22.8784458674
  C         9.1483779385        4.7780610665       20.6412797985
  H         3.1983888346        5.7880184722       23.6821637130
  H         4.1061403650        7.2203196998       23.9739690289
  C         3.1720343087        6.7633065886       25.7792844064
  C         5.7433063082        0.0630490854       28.7650772337
  C         5.4852206790        2.3251252500       29.8149737172
  C         8.8838635108        2.3853830650       20.4959154417
  C         9.1747429438        3.7067909100       19.7972398183
  S         9.5431433287        6.1885498614       19.8529710957
  H         2.3329267129        7.4353888000       25.5591954649
  H         3.9047752534        7.2188951369       26.4928529356
  C         2.7227803803        5.6952772323       26.6889394514
  N         6.1165067134       -0.8705173344       27.7690340222
  C         5.6289809448       -0.4656428730       30.0165076930
  C         5.3277558520        1.7458902104       31.0690214092
  H         5.3715221856        3.3882819373       29.7497858071
  C         7.6590443867        1.5369736117       19.9191184378
  C        10.1567127604        1.5334115451       20.5068556841
  C         9.6101262071        4.0936119018       18.4909778286
  C         9.7401897805        5.3980485891       18.3978433072
  H         2.1728603725        4.9562544495       26.1481785261
  H         3.6304866369        5.2272173436       27.1922364609
  C         1.8791375937        6.3558375451       27.7781870042
  S         5.9884739279       -2.3478803354       28.4831337296
  N         5.7240917226       -1.8383333799       30.0061364184
  C         5.3902166560        0.2976518047       31.2218333205
  H         5.1971435891        2.3451900083       31.8902544191
  H         7.4971596434        0.7454876566       20.6268475643
  H         7.9401845164        1.0853845929       18.9449663267
  C         6.3595229272        2.3805590640       19.8279993119
  H        10.2980327654        1.0523134725       19.5515387549
  H         9.9980860098        0.8467486266       21.2287552285
  C        11.4357242974        2.2546676998       20.8959494642
  H         9.7200048778        3.3195252893       17.7586547311
  C        10.0172071857        6.1130281312       17.1549830390
  H         1.0837790838        6.7998313854       27.3093450885
  H         2.3118896438        7.2152108279       28.3148544138
  C         1.2704709334        5.4634502477       28.8662206657
  C         5.2379718218       -0.4589294469       32.3889018828
  H         6.4236649176        3.1819060808       19.1308260451
  H         6.1567104697        2.8272554960       20.7447926711
  C         5.2738603079        1.4839320018       19.2928341161
  H        11.1546726754        2.8379138749       21.7445703482
  H        11.6611427534        2.9493594475       20.0987404496
  C        12.5587532961        1.2227827024       21.2194236322
  C        10.0729086081        7.5101818764       16.9044706791
  C        10.2488685768        5.3093901514       15.9511994894
  H         0.3852729633        5.0021626450       28.3485982055
  H         1.9742052324        4.5979898651       28.9726516173
  C         1.0902415130        6.1777158069       30.1620377378
  H         5.1934010656       -1.4954038867       32.2157947423
  C         4.8302155682       -0.1308990147       33.6222869795
  H         4.9053582742        0.8601335071       20.1227379313
  H         5.6367932880        0.9067794436       18.4248629931
  C         4.0256112436        2.2308484317       18.8233527949
  H        12.2342212211        0.4770391336       22.0293328198
  H        12.8181932674        0.6183570890       20.4147355560
  C        13.9621436476        1.6979650527       21.5924737234
  N         9.7113600167        8.4629380420       17.9287249958
  C        10.4478212337        8.0565135092       15.6903607878
  C        10.5772324384        5.8267596362       14.6931972121
  H        10.2567939199        4.3057476758       16.0425948303
  H         0.9361066286        5.5064270745       31.0500562111
  H         1.9254943274        6.8739118282       30.3118957937
  H         0.3335228869        6.8901991422       30.2003524842
  S         4.5738856000        1.4385027643       34.2528297253
  C         4.7606781530       -1.2106617516       34.6083071983
  H         3.8246550980        3.1250853976       19.4686220784
  H         4.3374549819        2.6107263277       17.7972252085
  C         2.8595561234        1.3275435112       18.6937392411
  H        14.3068657666        2.3695089319       20.8114866085
  H        14.6214849240        0.7974505027       21.6389207563
  C        13.9418378702        2.5144468397       22.8667274447
  S         9.7717377618        9.8983547707       17.2469013080
  N        10.3740629280        9.4424332323       15.8028385573
  C        10.7164226293        7.3163351932       14.5250719422
  H        10.8245542343        5.1118721933       13.9576278064
  C         4.1570363458        0.6283180324       35.7860158102
  N         4.3263024961       -0.7240351450       35.7541926773
  O         4.9837039262       -2.3768299531       34.3140989225
  H         2.1116361187        1.9708286301       18.3266336918
  H         2.5443759188        0.9299356634       19.5962700267
  C         2.9536386539        0.2202588982       17.6220405813
  H        13.2796127062        3.3620100285       22.6463027749
  H        13.5213868056        2.0109782571       23.8400120537
  C        15.3107931334        3.1287175189       23.1464444825
  C        11.0519649527        8.0391717947       13.3382800631
  S         3.7504949070        1.4315502367       37.3569606243
  C         4.1506157753       -1.5709006576       36.9357439007
  H         2.6081071687        0.4955830195       16.6372679627
  H         4.0133673343       -0.2134936612       17.5778501614
  C         2.0857722768       -0.9845475569       18.0805161884
  H        15.3623789684        3.5651025579       24.1570613034
  H        15.5488740009        3.9520947229       22.4636488236
  C        16.5192817261        2.0985517204       23.1379988887
  H        11.0287523309        9.1540393772       13.4641024092
  C        11.4719311926        7.7241411538       12.0652976372
  H         3.1928049252       -1.2994128570       37.4958833223
  H         3.9098085361       -2.6002807800       36.6813279958
  C         5.4323095086       -1.7224670583       37.8505480925
  H         1.0500117874       -0.7401290958       18.4436038351
  H         2.5581252087       -1.5164749463       18.8785857653
  C         1.8995455022       -1.8565584839       16.8054894887
  H        16.9956075927        2.2922252391       24.0784683746
  H        16.2478046173        1.0525654980       23.0468306459
  C        17.5497899630        2.4640342058       22.1406550127
  S        11.7247450579        6.1197053207       11.5198569850
  C        11.6365723261        8.8087004466       11.0519539270
  H         5.6141364072       -2.6640389340       38.3378962240
  H         6.2757716230       -1.3919953525       37.2226255410
  H         5.2428507876       -0.9408456912       38.6235357192
  H         1.5725463411       -2.8590896514       17.0584156074
  H         2.8401848022       -1.8825607923       16.2526725961
  H         1.2889798288       -1.2472094192       16.1416444852
  H        17.9349721825        3.4851881446       22.3653502184
  H        17.1245430957        2.4062793159       21.1024425825
  H        18.5046107453        1.9356712067       22.1611241711
  C        12.0874947558        6.8575925031        9.9288447019
  N        12.1659349635        8.2410737606        9.9598306318
  O        11.5001696005       10.0187701448       11.2786048800
  S        12.9133613930        5.9351231244        8.7372916490
  C        12.4863031048        9.1169733316        8.8566779333
  H        12.4653280830       10.1704330052        9.1303335598
  H        13.4609085682        8.9812890273        8.4809887902
  C        11.4270859621        8.9965949383        7.8096251771
  H        11.2395654162        9.9526627545        7.2969034329
  H        11.6952674598        8.4191069555        6.9365439162
  H        10.4845112282        8.4412577959        8.0038195647
  H         4.2203597477        1.6346254817       12.7638012122
  C         3.7336360600        2.6461070649       12.7262965772
  H         4.5770325804        3.3903293827       12.5843158699
  C         2.8603466632        2.6552060687       11.4644877104
  C         3.0188730467        3.0370824752       14.0338224023
  C         3.7825190101        2.7605144214       10.2467680673
  H         2.3510199456        3.5563652448       11.5668857334
  H         2.0724521528        1.8196696853       11.3914952210
  H         2.6255896534        2.1400635932       14.4598398909
  H         2.2830258743        3.8162822541       13.7637080253
  H         3.7850600151        3.3316242860       14.6793467372
  C         4.6824563278        1.5368792288       10.0860580128
  H         3.1055085829        2.9603516319        9.4424788577
  H         4.3830507559        3.6765169643       10.3216788696
  C         5.3097747865        1.5308345186        8.7554816702
  H         4.0579557152        0.6712666813        9.9952179037
  H         5.3185097923        1.4384362180       10.9208680588
  C         6.5795973269        2.4271926668        8.5987703904
  H         4.5600622736        1.8792367043        8.0318924989
  H         5.5912529583        0.5545265226        8.5024221659
  C         7.8723698729        1.7219239753        9.0554175250
  H         6.7743778476        2.8918328944        7.5645138884
  H         6.3578899510        3.2666937619        9.1990353155
  C         9.0799158108        2.6370661759        9.3204322865
  H         8.1142335472        0.8687440471        8.4340059950
  H         7.6861263357        1.3303948629        9.9694161455
  C         8.6847433886        3.9648538129       10.0181801065
  C         9.4358731242        3.3629355966        8.0965250189
  C        10.2297070567        1.8382303257       10.0055880508
  C         8.8520624151        5.0794869071        9.2331259983
  C         8.3131559140        4.3682989893       11.3175854161
  C         9.3207315974        4.6865933059        7.9709895264
  C         9.8804007126        2.7588728344        6.9244329871
  H         9.7138566096        1.3724216984       10.8444326832
  H        10.4603943216        0.9610443370        9.4370912230
  C        11.3871755313        2.6619181742       10.5052208947
  S         8.7137943874        6.5953059246       10.0080272525
  C         8.2227255114        5.7237900093       11.4973436266
  H         8.1980123366        3.6247693398       12.0626361260
  C         9.7661058615        5.3687113978        6.8453210168
  H         9.9887689675        1.7132408495        6.9698797053
  C        10.2803728671        3.3831539268        5.7599874945
  H        10.9636485230        3.4684298103       11.1118084822
  H        11.9676973456        3.2617836683        9.8200056628
  C        12.4480036466        1.8505963406       11.3051947117
  C         7.7453371505        6.3462844358       12.7896017239
  C        10.2522306137        4.7682691555        5.6425776553
  H         9.7962910018        6.4483438574        6.7875969329
  C        10.6628017358        2.9588255221        4.5226770351
  H        13.3580076582        2.4392703323       11.3710591818
  H        12.7490515963        0.9456185301       10.7581629657
  C        11.8983369016        1.4677286662       12.6688197983
  C         7.7639965994        7.7282640997       13.0209391887
  C         7.5065958228        5.4649465674       14.0198921475
  C        10.6503549023        5.4549338237        4.3921303938
  C        10.9174896528        4.0542620509        3.7311995893
  S        10.8052627547        1.4587637643        3.7757095931
  H        10.8596147878        1.7846950713       12.6541850187
  H        11.8797928394        0.4454655874       12.8355367421
  C        12.7701782066        2.0724746711       13.7909027072
  N         7.7871893045        8.7316750456       12.0375661232
  C         7.5047932315        8.3053709923       14.2778315978
  C         7.2367460769        6.0598604111       15.2284150906
  H         7.4896535890        4.3884481421       13.9983809693
  C        11.8786659455        6.3710613722        4.3395204371
  C         9.4659665381        6.2464247044        3.7599435443
  C        11.4832645723        3.6584056807        2.5150596421
  C        11.4499941186        2.2695726691        2.3636499039
  H        12.5147362008        3.1042761608       13.9912237969
  H        13.8156036463        2.0686584434       13.3614268568
  C        12.7378440703        1.1961277175       15.0037418012
  S         7.6570211118       10.2319871581       12.6742596556
  N         7.5129678380        9.6648887643       14.2713701878
  C         7.2300141901        7.5169508851       15.4555654977
  H         7.1075017743        5.4656331295       16.1407857750
  H        11.6887994772        7.1151954484        5.1057655620
  H        11.9716796831        6.9084979543        3.3660971349
  C        13.0698242143        5.6524105170        4.8225483602
  H         8.9310614073        6.7768394418        4.5764388424
  H         9.8061378345        7.0358523918        3.1060245608
  C         8.3708732302        5.3559111489        3.0263530491
  H        11.7001077200        4.3753687155        1.7220884731
  C        11.7116425997        1.4996402384        1.0542883838
  H        11.7012231661        0.8421755597       15.1299813169
  H        13.2551110773        0.3099105029       14.8253234001
  C        13.3636456632        1.9239268413       16.2285330502
  C         6.9029248143        8.2280565540       16.6860283095
  H        12.8773890959        4.9519729461        5.6669447267
  H        13.5078925460        5.0694733401        4.0453389879
  C        14.2230678498        6.6689450251        5.1373083659
  H         8.1162420854        4.5486409313        3.6877376992
  H         8.9595270659        5.0561897692        2.1497470483
  C         7.2347295723        6.3073919889        2.4391505273
  C        11.8088438845        0.0869752375        0.8823150272
  C        11.7771125334        2.2476331168       -0.2582079142
  H        13.3794498286        2.9612978528       16.0439768524
  H        14.4443551520        1.6671318391       16.2787055731
  C        12.6140849013        1.7808649821       17.5353134055
  H         7.0911351164        9.2338105342       16.6512554982
  C         6.4056383562        7.8259984877       17.8671704410
  H        13.9936498215        7.2745603704        6.0368222582
  H        14.5284151931        7.3693599046        4.3635507661
  C        15.5738538340        6.0397246420        5.4045015752
  H         7.0593836610        7.1755336621        3.0499558453
  H         7.5750333658        6.7196465057        1.5021939047
  C         5.8619399990        5.7189899989        2.1106074624
  N        11.6014731606       -0.8236899016        1.8857615038
  C        12.0775998504       -0.5378207596       -0.2775562165
  C        12.0780766342        1.6348221228       -1.4220914673
  H        11.6297613504        3.3560100489       -0.3060525978
  H        13.2667280736        2.1785845471       18.2969001532
  H        12.4162799263        0.6953916553       17.6976867637
  H        11.6485610867        2.2689442026       17.4335194617
  S         6.0056100171        6.1254031324       18.2550122273
  C         6.2172683454        8.7210107497       19.0393700601
  H        15.6032493491        4.9855728372        5.0508910319
  H        16.2983668166        6.6090713163        4.7429072190
  C        16.2288318918        6.1304873062        6.8304803772
  H         5.2215431189        5.6067581804        3.0182607106
  H         6.0917217020        4.6746493757        1.7138373507
  C         5.2256902673        6.6711979705        1.0991626664
  S        11.8681197383       -2.3005633133        1.3748907062
  N        12.1250851739       -1.9197817885       -0.1999001527
  C        12.3586249308        0.1561240303       -1.4763567199
  H        12.0091637182        2.2125311299       -2.3269173732
  C         5.7250193587        6.6416781453       19.9485169077
  N         5.7926965167        8.0114714842       20.1110458258
  O         6.3244552403        9.9041249555       18.8952128119
  H        16.3199505847        7.0526952930        7.3231816672
  H        15.6265916903        5.5073108494        7.5111001682
  C        17.5207732173        5.2930096856        6.8832188105
  H         5.8783886105        6.9708540763        0.2744293338
  H         4.5101178052        6.0365903723        0.6143209381
  C         4.4106009669        7.8414204984        1.8175333466
  C        12.6806202309       -0.5634386259       -2.7007037404
  S         5.0812481661        5.5927329457       21.2122701951
  C         5.6534982716        8.6249104514       21.4003896528
  H        17.7650901687        5.2054636623        7.9410179091
  H        17.4271035563        4.2468875612        6.5103748766
  C        18.8066048056        5.9875473488        6.2911705808
  H         5.0675172026        8.3745136873        2.5403856770
  H         3.5328151921        7.5182488191        2.4538346085
  C         3.7020947468        8.7662885944        0.8728766192
  H        12.8255857692       -1.6312037332       -2.6651873620
  C        13.2371185957       -0.0420624342       -3.8836856802
  H         4.9805468101        8.2494255013       22.0981078565
  H         5.2830214377        9.6695198385       21.3584095078
  C         6.9214680293        8.7444903278       22.2355042328
  H        18.7200858766        7.0659268797        6.5165463103
  H        18.7532899346        6.0151591411        5.2249568230
  C        20.0710886421        5.5037443734        6.8586619565
  H         3.6547142794        8.3831672150       -0.1612254278
  H         2.6313949041        8.9593915556        1.0115869198
  C         4.4774134034       10.0216381099        0.5258305270
  S        13.6165908357        1.5581920180       -4.3424515200
  C        13.4980989843       -1.0531705943       -4.9675309456
  H         7.5405695662        9.5929995202       22.0322369077
  H         7.5320965724        7.8486434035       22.0203449096
  H         6.6898526470        8.8817370537       23.3125226118
  H        20.8308245076        6.2482263962        6.7533548493
  H        20.0877418981        5.2760604457        7.9317284836
  H        20.5563575953        4.6493827508        6.3334932322
  H         5.0447216439       10.3307347118        1.4204676209
  H         5.1968374583        9.9279718997       -0.2856189571
  H         3.8725185777       10.8603966323        0.3804096822
  C        14.0218639191        0.9472695334       -5.9261880041
  N        14.0018873703       -0.4324239063       -6.0644548309
  O        13.2728136451       -2.2895967624       -4.7714145854
  S        14.6916168332        1.8467973624       -7.3303554527
  C        14.3372716016       -0.9820032979       -7.2824954012
  H        14.5778236959       -2.0360337774       -7.1240214549
  H        15.2631664218       -0.6149506058       -7.7651641566
  C        13.1683059011       -0.9874205231       -8.2115481912
  H        13.1886103020       -0.1927594825       -9.0282065393
  H        12.2806737008       -0.8971816218       -7.6657454776
  H        13.1143073739       -1.9451648527       -8.7734699737
