352
 i =    99000, time =    49500.000, E =        98.4135251267
  H        12.2757288377        5.6489294141       32.3096984114
  C        11.2666876892        5.3094889315       32.5018256300
  H        11.1978052556        4.2316804907       32.1587240255
  C        10.1581075390        6.2414935051       31.8420072647
  C        11.2602327216        5.1723098871       34.0010790458
  C        10.5678115773        6.5102131422       30.3887936297
  H         9.2204495714        5.7344371977       31.9419441892
  H        10.0123136662        7.2354372603       32.2862439329
  H        12.2602285021        5.2771946889       34.4479872202
  H        10.6196637365        5.8818240723       34.6548172092
  H        10.9747205987        4.1285484748       34.2899530911
  C        10.3286555629        5.3088432052       29.3946176282
  H        11.6301952498        6.8191400448       30.3543832455
  H         9.8892775415        7.2528689582       29.9491936208
  C        10.8620189399        5.7175290244       27.9644336084
  H        10.7618286454        4.3704348739       29.7447810409
  H         9.2751302080        5.0270347574       29.2656115256
  C         9.9419910164        5.0774302642       26.8589246498
  H        11.8520537105        5.3174881049       27.8879745262
  H        10.8298822856        6.7794207985       27.8946204284
  C         8.7981702410        5.8798354432       26.4939704635
  H        10.4201006161        4.7997539643       25.9678675528
  H         9.7167832864        4.1239070919       27.1171531895
  C         7.6412858878        5.2474478954       25.6973970133
  H         8.3225400971        6.2369220629       27.4020658681
  H         9.1306335130        6.7376399068       25.8681758194
  C         7.1607360238        3.9521091600       26.3983178803
  C         7.9800554915        4.5403875274       24.4679915838
  C         6.3491605585        6.1521913049       25.5646736037
  C         7.3416957246        2.7814142806       25.6256072001
  C         6.6702139023        3.5458992923       27.6568714691
  C         7.8971569453        3.1999389814       24.4182890063
  C         8.3238706643        5.1666087764       23.2909435238
  H         6.6187126574        7.0435208203       24.9935181966
  H         6.2073606049        6.4785030190       26.6049198126
  C         5.1311620403        5.4931449817       24.9248013759
  S         6.9059030796        1.2353368226       26.3334256293
  C         6.5185573242        2.1677809067       27.7954751154
  H         6.4025893774        4.3608351038       28.3119328912
  C         8.3334221066        2.6093957298       23.2679511825
  H         8.2457172609        6.2725693315       23.3022286746
  C         8.8277352710        4.5488572209       22.1787623899
  H         5.3238708148        5.3273891936       23.8548166228
  H         4.8726914349        4.5181894963       25.4053774117
  C         3.8991889002        6.3931391290       24.9798338103
  C         6.1823693337        1.5464224723       29.1280966298
  C         8.7860397946        3.2081865616       22.1195308032
  H         8.3108386443        1.5506893710       23.2222380837
  C         9.1861467043        4.8443700240       20.8942187511
  H         3.1588293348        6.1056567336       24.2092841263
  H         4.1232381494        7.3841171379       24.6251196838
  C         3.2628486158        6.4661690995       26.3934359362
  C         6.0934261936        0.1452114744       29.4199156074
  C         5.9129910956        2.3320725245       30.3841142587
  C         9.1548659501        2.4213082654       20.9039420758
  C         9.3131798379        3.7200352888       20.1125945680
  S         9.4230253076        6.2365123157       19.8923497869
  H         2.4044157666        7.0841817342       26.3102594139
  H         3.9950133825        6.8554165733       27.0625931812
  C         2.8736884691        5.1623972964       27.0901113139
  N         6.3780146304       -0.7855599420       28.4282044140
  C         5.7589661430       -0.4459325624       30.6475330397
  C         5.4555446011        1.7617215275       31.5489248551
  H         5.8400956103        3.4183094823       30.2738215367
  C         8.0240116637        1.4885349327       20.4345934735
  C        10.4554508344        1.6211917154       21.0910512256
  C         9.5455738918        3.9829339959       18.7049842374
  C         9.7469151347        5.3372858171       18.4797763421
  H         2.4095498763        4.4776195534       26.3901308685
  H         3.6123625777        4.4126885726       27.4427491205
  C         1.9378604714        5.4146400243       28.2678514432
  S         6.1314079821       -2.2719762774       29.0554263022
  N         5.6538719499       -1.8431270317       30.5544805859
  C         5.3802320933        0.3111090349       31.7661421910
  H         5.1912098504        2.4238297991       32.3026272514
  H         7.6215248565        0.9787202403       21.2473457118
  H         8.4059737713        0.8142416412       19.7206287926
  C         6.7941900162        2.2059898910       19.7928189561
  H        10.7972942962        1.1559139473       20.2293534311
  H        10.3169680613        0.7936695661       21.8151938608
  C        11.7269938096        2.3641991924       21.5206543327
  H         9.5723081146        3.1366913513       17.9841130701
  C        10.0593067081        6.0452267168       17.1738804510
  H         1.3469098707        4.4990321028       28.3796619538
  H         1.2807130414        6.2312489752       27.9681806117
  C         2.5998421216        5.7238348813       29.6355021208
  C         5.1862809852       -0.3034524271       32.9662744303
  H         6.9354357271        3.0339682636       19.0656762570
  H         6.3445867893        2.8533968929       20.5594320194
  C         5.6989015833        1.2739765949       19.2241907680
  H        11.5353498577        2.5617299255       22.5304156976
  H        11.9500800524        3.2809852470       21.0059804036
  C        12.9566339874        1.5017014184       21.6016080420
  C        10.2100298236        7.4643299224       17.0207197501
  C        10.2856336174        5.2368176142       15.9220308636
  H         3.0613123434        4.8833864211       30.0952746084
  H         3.3538063438        6.4439060837       29.3867270834
  C         1.6000728963        6.1485660277       30.7537592606
  H         5.4312867078       -1.2824017793       32.9770463492
  C         4.8191027780        0.0622127759       34.2543580189
  H         5.2103076422        0.8896303858       20.1223221809
  H         6.2304332205        0.3679523513       18.9182513010
  C         4.7458454176        1.9515425185       18.2452275969
  H        12.8769199253        0.8000330081       22.4425758343
  H        13.0158257757        0.9056650301       20.6981880510
  C        14.1713181513        2.3935225267       21.7684831069
  N        10.1095480681        8.4061072647       18.0457204067
  C        10.4696118404        8.1048852456       15.8390777876
  C        10.4626928035        5.8676594416       14.7009306765
  H        10.0938320830        4.1898996991       15.9351868233
  H         1.4620826563        7.1871254233       30.8576277003
  H         0.6213333455        6.0257434193       30.3804812995
  H         1.7553516056        5.7071297346       31.7485812186
  S         4.3042624298        1.6257046959       34.6506054464
  C         4.7442202414       -0.9501095153       35.3198387348
  H         4.1949259988        2.7014340644       18.7648104402
  H         5.1951701006        2.5407388415       17.4461614315
  C         3.9087047603        0.8341271123       17.5032045830
  H        13.9528105340        3.1412977118       22.5046030099
  H        14.2388952102        3.1271758455       20.8932931921
  C        15.5015213591        1.6886114130       22.1395964963
  S        10.1061375956        9.8841794402       17.4347427365
  N        10.4172603368        9.5135287727       15.8975398964
  C        10.7335746996        7.3296905739       14.6830312944
  H        10.4915138804        5.2741942969       13.8417364700
  C         4.2369270298        1.0726035790       36.3217974563
  N         4.4875622855       -0.2930072296       36.4708452134
  O         4.9889593422       -2.1402443251       35.1675839927
  H         4.4899116917       -0.1012895406       17.4431356732
  H         3.7994754903        1.1485704002       16.4744929901
  C         2.5504819773        0.7389947360       18.2644298852
  H        15.2844990998        1.1467335830       23.0540684018
  H        15.8132419304        1.0019894179       21.3247669288
  C        16.6979087340        2.5850407232       22.1457083190
  C        11.0179688409        8.0035600503       13.4840487537
  S         3.8210751098        1.9499700443       37.7771446668
  C         4.5199648346       -0.9707178170       37.7873134227
  H         2.7236758452        0.5063086057       19.2429749089
  H         2.0378185428        1.6877096036       18.3769460975
  C         1.5803326090       -0.2252705446       17.6211150943
  H        16.4610267868        3.6598926693       22.4147617518
  H        17.1238671567        2.7696468433       21.1422640466
  C        17.7352062934        2.0896868950       23.0889990146
  H        10.7071249174        9.0092025179       13.4129375613
  C        11.5416693453        7.6399340561       12.3049394865
  H         3.8026873104       -0.6112793909       38.5544387641
  H         4.2319050581       -2.0217075952       37.5725836385
  C         5.9392536269       -0.9446256101       38.3521334438
  H         1.8067116054       -0.1715678658       16.5856169899
  H         0.6543874519        0.1911056215       17.6977193247
  C         1.7046296121       -1.6196977983       18.2538232514
  H        18.1389464893        1.2157956009       22.6314432221
  H        18.5254493876        2.8472962440       22.9810533590
  C        17.2137188489        1.8815023360       24.5178997953
  S        12.1173108451        6.0695313079       11.9185254021
  C        11.7134450643        8.6507136812       11.2297305311
  H         6.6913046836       -0.6872811739       37.6651615591
  H         5.9140907302       -0.2485811882       39.1787222884
  H         6.1730080195       -1.8868565597       38.7854876547
  H         2.7389612252       -1.7768311065       17.9933129753
  H         1.0847041880       -2.3648630081       17.8541734068
  H         1.6528881301       -1.6312943411       19.3226292262
  H        17.9012301703        2.1600974702       25.2368765699
  H        16.7507948460        0.8891057255       24.7400313107
  H        16.3948658433        2.6269163493       24.5270258949
  C        12.3738477763        6.7763716731       10.2621370772
  N        12.2355349652        8.1185007698       10.1634461818
  O        11.4597467398        9.8641763984       11.3383938074
  S        12.9121279339        5.8491634478        8.8112552532
  C        12.5212643260        8.9037431565        8.9570254862
  H        12.6080523883        9.9984512231        9.1482120008
  H        13.5488364674        8.8657724696        8.6092973432
  C        11.4304920157        8.7143662123        7.9409519867
  H        10.4940231476        8.4558469727        8.4015500896
  H        11.1655881498        9.6605045167        7.4447156065
  H        11.7087814696        7.9022552272        7.2551339994
  H         2.5453783800        3.4632733509       11.9824779341
  C         3.0835893210        2.5462288456       12.3172093158
  H         2.7007863886        1.7266480776       11.6529823036
  C         4.5631792846        2.5845532539       11.9251051607
  C         2.9030408352        2.2404754988       13.8089185556
  C         4.7884861754        2.8955560191       10.4604634100
  H         5.1277401659        1.7357079170       12.2103847356
  H         5.0121994763        3.4070685893       12.4475050295
  H         3.6938852256        2.5496403006       14.5072639378
  H         2.6035617634        1.2283583723       13.9499413040
  H         2.0103853288        2.7772457552       14.1627146749
  C         5.0226735535        1.6208293702        9.5854146878
  H         3.9367252364        3.5217460761       10.1408708175
  H         5.6128081660        3.5818151877       10.5539874533
  C         5.6091171793        1.7750770539        8.2493975522
  H         4.1211639491        1.0110058887        9.5627509300
  H         5.6069588419        1.0168390185       10.2755621003
  C         6.9288614178        2.5368790074        8.3031210703
  H         4.8454267679        2.3186966815        7.6702874232
  H         5.8018725427        0.8471276523        7.7216207042
  C         8.0518118399        1.7572364861        8.9341850030
  H         7.3172015227        2.8419741389        7.3518673488
  H         6.7990107197        3.3580280690        8.8778760955
  C         9.3332202411        2.6844085668        9.0673039455
  H         8.2832344602        0.9400787572        8.2342004305
  H         7.8494187006        1.2726710505        9.9162347284
  C         8.9960239178        4.0133472292        9.7514013489
  C         9.7532293098        3.4151373539        7.8232474527
  C        10.4609687039        1.8388872035        9.6954932795
  C         9.1186813545        5.1381857592        8.9471147806
  C         8.3869523315        4.3480044161       10.9859958362
  C         9.5355347197        4.7622638418        7.6971011737
  C        10.0804581579        2.8153587341        6.6208663428
  H        10.0528535523        1.2857036207       10.5142464378
  H        10.7907365674        1.1190921967        8.9505580640
  C        11.6440084994        2.6522169463       10.0509088535
  S         8.7284571889        6.6400854214        9.7020976040
  C         8.2610180660        5.6770649206       11.1039797292
  H         8.2168621581        3.5781104917       11.6538288731
  C         9.9045400747        5.4272067835        6.5516642793
  H        10.2135422304        1.6598817968        6.6076943487
  C        10.3704475222        3.4576590723        5.4523218593
  H        11.3679066960        3.5492511140       10.6806264436
  H        12.3133310883        3.0229991034        9.2723075518
  C        12.6384251547        1.8999957867       10.9383048083
  C         7.9095328359        6.3685955417       12.4203348911
  C        10.3608831939        4.7733616467        5.3606769237
  H        10.0239464033        6.5225341814        6.5185445158
  C        10.7627487105        3.0177677642        4.2450693829
  H        13.4756604029        2.4753346015       10.8825627868
  H        13.0149312369        0.9664008284       10.4988808417
  C        12.1097078080        1.6651526495       12.3775778968
  C         7.8787102611        7.7509463356       12.6661292927
  C         7.5526940496        5.5376392279       13.5665570279
  C        10.8327923115        5.4326746158        4.0685217030
  C        11.0390946225        4.0529111104        3.3875992322
  S        11.1875683620        1.5376206302        3.5914407491
  H        11.2347051815        2.2986397371       12.3994106792
  H        11.6325160884        0.6842531633       12.4732332390
  C        13.0861217184        2.1467845054       13.5104248241
  N         8.1502041229        8.6937139982       11.6940355596
  C         7.5601972519        8.3317954710       13.8435197257
  C         7.3038421402        6.1131562000       14.8243273180
  H         7.5131614914        4.4401394851       13.5361092282
  C        12.1133165697        6.3105748367        4.0993619383
  C         9.6439521682        6.1890967315        3.4762040158
  C        11.5445827974        3.6380329995        2.1572700570
  C        11.6576249627        2.3298621917        2.1087785590
  H        13.3702820931        3.1600640843       13.3127724142
  H        13.9360247990        1.4036253626       13.5681105579
  C        12.2891063612        2.1987061654       14.8798965733
  S         8.0285676214       10.1501403038       12.3128999017
  N         7.6003774184        9.7203617961       13.7887181688
  C         7.3686703298        7.5842224576       14.9908085994
  H         7.1436211456        5.4423180207       15.6154281103
  H        11.8056509072        7.2751179348        4.5064051748
  H        12.4646538132        6.4091882682        3.0793947401
  C        13.2275297081        5.6109515869        4.9305687655
  H         9.3639372917        6.8657128215        4.2173328225
  H        10.1630742288        6.8479152137        2.8181211046
  C         8.5584634976        5.2638311907        2.7365032601
  H        11.8052109946        4.4003499551        1.4685225517
  C        11.9931141121        1.5141352213        0.9053263611
  H        12.1683751721        3.1632409470       15.3682671391
  H        11.2118054245        1.8798489646       14.7315000072
  C        12.9062967496        1.3431521805       15.9432058206
  C         7.2333241654        8.2466665887       16.2071762499
  H        12.8364274187        5.2570515559        5.8737626788
  H        13.4550434107        4.7162579209        4.4114449746
  C        14.4802197694        6.3441690499        5.0692676516
  H         8.3150550231        4.4389614314        3.3681632787
  H         8.7901507644        4.8071927410        1.7653805568
  C         7.2551254000        5.9855336721        2.4640863187
  C        11.9477495918        0.1120078593        0.7572747694
  C        12.2115450186        2.2700502578       -0.3611403985
  H        13.9477966232        1.3151804983       15.9383205980
  H        12.5073372714        0.3240586607       15.9132763011
  C        12.5470218411        1.9014439344       17.3368839020
  H         7.4376604876        9.2509421462       16.1601495304
  C         6.8555639670        7.8344067925       17.4873274588
  H        14.3443160780        6.9798453386        5.9223985919
  H        14.5985508529        6.9730847674        4.1775275485
  C        15.6433013284        5.4877619719        5.3190485815
  H         6.7040228331        5.9784477739        3.3761213327
  H         7.4861258575        7.0180614382        2.3362542710
  C         6.4098233453        5.4308858773        1.3475525725
  N        11.6004617529       -0.7836473242        1.8123690674
  C        12.2129073805       -0.5613253913       -0.4342101133
  C        12.3859046218        1.6235887739       -1.5850853842
  H        12.0584332144        3.3222232591       -0.4040442628
  H        12.5352114001        2.9730974350       17.4045521146
  H        13.1651685730        1.5089918329       18.1391184693
  H        11.6042199688        1.4985844773       17.6087550698
  S         6.3831387188        6.2885454966       18.0941780499
  C         6.8713949035        8.9096366200       18.5290592137
  H        15.2375737909        4.5819041173        5.8698565942
  H        16.0242965068        5.1393023177        4.3453875964
  C        16.8114818651        6.0845180961        6.1982022767
  H         6.2234550358        4.3794965205        1.5823280343
  H         6.8978112095        5.4582827246        0.4051125013
  C         5.0920201675        6.1969288549        1.1103711111
  S        11.9192484018       -2.2896254448        1.3272248284
  N        12.1965992326       -1.9706289761       -0.2473887562
  C        12.4558730466        0.1589876586       -1.6572381502
  H        12.4796317781        2.2017382800       -2.4628454500
  C         6.1811750673        7.1193270834       19.6630946035
  N         6.3850223983        8.4467662990       19.7183261141
  O         7.2415436473       10.0557907857       18.3125650555
  H        17.4331341995        6.7715913617        5.5971469578
  H        16.3689512633        6.7294096693        6.9693292609
  C        17.7667046890        5.0413474906        6.8022892895
  H         4.5284921948        5.5685714266        0.3613201549
  H         4.5196300785        6.2472101351        2.0146466606
  C         5.4118820807        7.5768566227        0.5824526314
  C        12.8159776364       -0.5023755728       -2.8605451284
  S         5.7900134099        6.3449276439       21.1554098959
  C         6.4320086740        9.2319288922       20.9387305738
  H        17.3052089551        4.4360784640        7.6047256616
  H        18.1314547494        4.3219583961        6.0165171799
  C        18.8172307775        5.6705182357        7.5666052112
  H         5.2638536923        7.5279807742       -0.4422266659
  H         6.4108735194        7.9194781504        0.8246667500
  C         4.4099720932        8.7150470627        1.0183585785
  H        12.5813324639       -1.5393783458       -2.8183384150
  C        13.3042038924       -0.1392310285       -4.0696506428
  H         5.8169461749        8.7030323708       21.6482171544
  H         5.9295719983       10.1911631940       20.9408829756
  C         7.7671880629        9.3146240087       21.6658065845
  H        19.0619124816        5.0028187638        8.3779926491
  H        18.5083880818        6.6086251595        8.0909928351
  C        20.1154784905        5.9598913628        6.6874414644
  H         4.8964964010        9.6201007993        0.5746926472
  H         3.3996339504        8.6431015562        0.5014935396
  C         4.4196857687        8.8348467876        2.5486692525
  S        13.9749804804        1.3735087188       -4.5601538447
  C        13.4221010516       -1.2365087966       -4.9874139062
  H         7.6849566359        9.3598740398       22.7820755593
  H         8.2874013150       10.2258319346       21.4261095175
  H         8.4129924251        8.4509136318       21.4739233786
  H        20.0029679167        6.6827854498        5.9364467313
  H        20.9457475709        6.2842953733        7.3096215955
  H        20.4747011971        4.9853439372        6.2583937343
  H         4.2317741507        9.8135911360        2.8955676202
  H         3.5886333505        8.2194354407        2.9936865781
  H         5.4183467943        8.6116192459        2.9252815522
  C        14.1011690679        0.5848492765       -6.1112969249
  N        13.9621463421       -0.7592190799       -6.1315137756
  O        13.3885382525       -2.4404529947       -4.7151475550
  S        15.0740183476        1.3614238517       -7.3857239741
  C        14.1521416609       -1.6272446206       -7.2956371551
  H        14.3724312655       -2.6694809594       -6.9122088147
  H        14.9755380297       -1.3444853814       -7.8916113474
  C        12.9749570957       -1.7699766364       -8.2434096229
  H        12.0568658744       -2.0807298115       -7.7475498625
  H        13.1395325687       -2.7364026759       -8.7113708268
  H        12.7061041783       -0.9908751987       -9.0316477498
