352
 i =   129800, time =    64900.000, E =       100.1280534247
  H        10.0253565227        6.4159399074       30.2284027375
  C        10.9724568219        6.3432785219       30.8316169463
  H        11.4480256437        7.3279521555       30.9636803041
  C        11.9408614912        5.4202648063       30.1244322726
  C        10.6643409764        5.7364615709       32.2229669180
  C        11.1877638464        4.5030004393       29.1134081468
  H        12.6168900765        6.0460518926       29.5473443029
  H        12.5481890719        4.9391219809       30.8543968807
  H        10.3488429984        4.7085318324       32.2024188783
  H        11.5808306569        5.7692932663       32.8058895380
  H        10.0030803219        6.3843148305       32.7857899022
  C        11.5728354971        4.9117507030       27.6614549822
  H        10.0852609322        4.6013008435       29.2455715905
  H        11.3706152449        3.3749610463       29.2481153994
  C        10.6303947438        5.9115431380       27.1074774687
  H        12.6125128687        5.3376453773       27.6779048668
  H        11.6292356241        3.9440797682       27.0836964338
  C         9.6060114068        5.1815179965       26.2408954939
  H        11.2115875756        6.5912579090       26.4948331884
  H        10.0927334674        6.5660800098       27.8314492346
  C         8.3642167380        6.0124012611       25.8291386743
  H        10.0906812286        4.9572009499       25.3523507142
  H         9.3883558783        4.2671753416       26.6772308455
  C         7.2270199428        5.1520001723       25.2301899257
  H         8.0642054024        6.4146202055       26.8102551100
  H         8.6840261545        6.8175471693       25.2568577253
  C         6.9846387529        3.7736455074       25.9456978110
  C         7.6240099698        4.3992316177       23.9990780330
  C         5.9779382634        5.9761650552       25.0462587067
  C         7.2365628636        2.6407964275       25.1870938864
  C         6.6194329879        3.4140758369       27.2152056371
  C         7.6786811955        3.0378108960       23.9287871561
  C         8.1726344199        4.9568823301       22.8385793323
  H         6.1617024807        6.6631447615       24.1779420921
  H         5.8380565106        6.7307752272       25.8251327440
  C         4.6857082150        5.1751883410       24.7611629694
  S         6.6386428099        1.1853182378       25.9071823674
  C         6.4360888780        2.0803561049       27.3631748059
  H         6.5209500342        4.2681979960       27.8936973236
  C         8.0178624277        2.3993661949       22.7746913996
  H         8.1427087386        6.0656235754       22.8588941136
  C         8.5544179007        4.3155043437       21.7325939546
  H         4.6632642443        4.8715810643       23.7383217086
  H         4.5719747667        4.2420947503       25.3055368040
  C         3.4440483967        6.0347186904       25.1753102850
  C         5.9568645695        1.4526661264       28.5870252696
  C         8.5147862465        2.9683439836       21.6516671862
  H         8.0980364408        1.3374911063       22.8352075128
  C         8.9617544510        4.6655177979       20.4753931300
  H         2.6252385198        5.5555650571       24.5641750329
  H         3.6080957601        7.0435415102       24.8063210974
  C         3.0688043492        6.0270229906       26.6557990336
  C         6.0372083074        0.0631736653       28.9183846021
  C         5.4593595144        2.3557186891       29.6712330998
  C         8.9427466997        2.2729752079       20.4031305180
  C         9.2691660284        3.5994934688       19.6904696238
  S         9.2174160595        6.1270565319       19.6563202996
  H         2.3204627015        6.8171516910       26.9033136156
  H         3.9435358284        6.2459993757       27.3104984871
  C         2.4642572885        4.6754893314       27.1456540798
  N         6.4693631409       -0.9083475626       28.0352732453
  C         5.7016503287       -0.4215805592       30.1666537841
  C         5.2121771435        1.8753128368       30.9150409691
  H         5.3402749901        3.4023368700       29.3996086531
  C         7.6803091395        1.6211928283       19.7245576715
  C        10.2242613568        1.4544486987       20.6116527738
  C         9.6361186604        3.9091633307       18.3626578607
  C         9.6938506313        5.2886056111       18.2205725359
  H         2.1530193371        3.9897397275       26.3021186130
  H         3.3938890701        4.1283983031       27.5410316945
  C         1.2904569918        4.7464681247       28.0579595860
  S         6.3938078186       -2.3591348780       28.8542681258
  N         5.8468711211       -1.7807311125       30.2475826053
  C         5.3846545912        0.4283069171       31.2326298286
  H         4.9136348538        2.6494724850       31.6178143135
  H         7.4713253067        0.7452397394       20.3293912911
  H         8.0082608244        1.2608724480       18.7340364946
  C         6.3785087051        2.3690185100       19.5699242089
  H        10.2872908037        0.8969876544       19.7086325178
  H         9.9375251590        0.9209936593       21.4794662313
  C        11.4029565447        2.2924865734       20.9374479250
  H         9.7893452994        3.1621761735       17.6980273079
  C         9.8549972912        6.0003228575       16.9167246312
  H         0.6440390340        3.8642139624       27.9369932651
  H         0.7118210836        5.5032975153       27.6099022311
  C         1.2670982858        5.2689808843       29.5181104859
  C         5.2225414689       -0.1514043819       32.5161471025
  H         6.4257666353        3.4193760290       19.4234775094
  H         5.7785333674        2.1982743013       20.4316119457
  C         5.6713815412        1.9638380501       18.2864524469
  H        11.1990495593        2.8067944660       21.9174608525
  H        11.6064812830        3.0448531749       20.2036727085
  C        12.7188733698        1.4661269531       21.1963716875
  C        10.0491564210        7.4112227248       16.8155124278
  C        10.0223749102        5.2602811704       15.6663902881
  H         1.3031818343        6.3531994185       29.5029370186
  H         0.3434381405        5.0282827142       29.9662022750
  C         2.5437756508        4.8966579474       30.2782089322
  H         5.2950404817       -1.1485183406       32.5115280280
  C         4.9075299982        0.3467955709       33.8018057698
  H         5.9234942116        0.8427815446       18.0963366806
  H         5.9184928382        2.5172458121       17.4278986203
  C         4.2307437509        2.2010749815       18.3675741569
  H        12.6011526892        0.8775578085       22.0645163914
  H        12.7079128858        0.7528926157       20.4614339701
  C        14.0552303270        2.3188004318       21.0291193997
  N         9.7212005959        8.3646378075       17.7650192923
  C        10.3647919513        8.0122218352       15.6033874561
  C        10.4019666482        5.8916136504       14.5042556650
  H         9.7347255791        4.2123565390       15.6983691214
  H         2.4974463686        3.8938122989       30.7415862562
  H         3.4269345932        5.0008356953       29.6327976683
  H         2.6462357211        5.5867289607       31.0567574214
  S         4.5691642957        2.0025568972       34.1714610949
  C         4.7643071160       -0.6544150810       34.9242101799
  H         4.0490034181        2.9642795369       19.0823813637
  H         3.7849178550        2.5170615744       17.4302484578
  C         3.3532319234        1.0204717444       18.7666739614
  H        13.9419802476        3.4079723554       20.9990043827
  H        14.2830688850        2.2647248131       19.9486189353
  C        15.1102828324        2.0386172065       22.0855333169
  S        10.1054674192        9.8852574944       17.2092572861
  N        10.4863815712        9.3876413031       15.7239616386
  C        10.4925855373        7.3533273735       14.4044006150
  H        10.6135630151        5.2916467128       13.5963584427
  C         4.3627577509        1.3802659040       35.8193912206
  N         4.3771739899        0.0375663295       35.9860409350
  O         4.8431367135       -1.8416296559       34.8316000766
  H         2.3935666926        1.3946328957       18.9287466050
  H         3.7020312686        0.5841136286       19.7861294770
  C         3.1722249645       -0.0747428016       17.6885167447
  H        14.6755316410        2.1742925012       23.1121125426
  H        15.3533171162        0.9816412847       22.1097542343
  C        16.4607602087        2.7875043715       21.9739046174
  C        10.8634752225        8.1292081077       13.2390448769
  S         3.5629359978        2.2493960696       37.0772331923
  C         4.2829671107       -0.7028973965       37.2602949502
  H         2.8187349497        0.3889376544       16.7212299123
  H         4.0975458743       -0.6906314589       17.4330763098
  C         2.1864936676       -1.1374039815       18.1295486245
  H        16.1886124169        3.8909481846       22.2093504890
  H        16.8960823758        2.8875052197       20.9496630164
  C        17.5680124608        2.1241455082       22.8113640975
  H        10.7229406331        9.1871602571       13.3686956244
  C        11.3851714183        7.8983699143       12.0193972474
  H         3.6083308148       -0.3165965367       38.0449254587
  H         3.8405775762       -1.6651036605       37.0946222745
  C         5.7008530492       -1.0028913690       37.9070003699
  H         1.2651475757       -0.6432811674       18.4979432687
  H         2.6360142984       -1.7578054546       18.9703216467
  C         1.8146512134       -2.2731599463       17.1063100752
  H        17.8317826831        1.1827441661       22.4265835672
  H        18.4041992390        2.7340951983       22.6951866233
  C        17.2024634396        1.9662794128       24.2647203419
  S        11.9564764510        6.3364188713       11.5437236857
  C        11.6064425055        9.0092150529       11.0691308910
  H         6.2245009066       -1.7809006079       37.3222783341
  H         6.3228471434       -0.1329553273       37.9842213113
  H         5.5957226898       -1.3600869306       38.9301599258
  H         0.7858923148       -2.0916450109       16.6441018099
  H         1.7673925229       -3.1780713676       17.6874568829
  H         2.5148874586       -2.3329128113       16.2693291914
  H        16.5237142562        2.7521365024       24.5902177231
  H        18.0363849549        1.9853603375       24.9541317178
  H        16.8558041740        0.9233483466       24.4504039169
  C        12.4890417353        7.1267358945       10.0433594374
  N        12.2909535288        8.4996582305       10.0231399439
  O        11.3512309990       10.2114924214       11.1443923974
  S        13.1682326487        6.3404761419        8.6593972738
  C        12.5922019003        9.2928681202        8.8678097985
  H        12.9509939608       10.3100788327        9.2157012337
  H        13.3712689908        8.8430224195        8.2903461567
  C        11.4256394593        9.4925546302        7.9658242356
  H        11.4029354708       10.5312629014        7.6804016428
  H        11.6647762744        8.9389330730        7.0472180268
  H        10.4827805516        9.1761157361        8.4131622557
  H         4.8315605151        1.4125398916       12.4606939048
  C         4.3635186942        2.3217092419       12.7187219626
  H         5.0885220038        3.1276672145       12.8952021174
  C         3.2478113197        2.6570956445       11.7482896587
  C         3.5954479527        1.9619482097       13.9138076110
  C         3.8301121847        2.7936758379       10.3318210365
  H         2.6090409411        3.5387922536       12.0102166693
  H         2.5313302174        1.8643579920       11.6311161811
  H         4.2879701295        1.6594134780       14.6424972833
  H         2.8853816357        1.1637510647       13.7556005260
  H         2.9207562058        2.8151620858       14.3158748032
  C         4.4987331529        1.5633074665        9.7605526089
  H         3.0711476481        3.0398828075        9.5807016820
  H         4.5519160494        3.6741395152       10.4137136571
  C         5.1511034267        1.7254678272        8.3499535631
  H         3.5844196958        0.9161713265        9.6695786745
  H         5.2368605432        1.0782825146       10.4431317578
  C         6.4363730817        2.5686509825        8.4648130971
  H         4.3866366841        2.2067572953        7.6941360741
  H         5.3445341958        0.8308897093        7.7375500140
  C         7.6694021784        1.9541909069        9.1983760582
  H         6.8419726875        2.6795226903        7.4862781252
  H         6.1186181050        3.5468133144        8.9346287320
  C         8.9396589782        2.8660556452        9.2398652708
  H         7.7733706813        0.9787959152        8.6595921825
  H         7.3439905825        1.6898401945       10.1736939139
  C         8.6900082441        4.1345320134        9.9862231531
  C         9.3206909989        3.5195437460        7.9621230633
  C        10.0451321545        2.0377157894        9.9262692829
  C         9.0493474301        5.2247658930        9.2761363061
  C         8.1698460948        4.5289858263       11.2328644401
  C         9.3938507704        4.8643725646        7.9541225135
  C         9.7096501575        2.9142278082        6.8230348481
  H         9.8875234905        1.6759423850       10.9259894059
  H        10.1839417103        1.1536976919        9.3006768945
  C        11.3426701477        2.7448772521       10.0001801859
  S         8.7152098389        6.7245802681       10.0024494438
  C         8.0197604851        5.8831162227       11.3615746135
  H         8.1008716977        3.8671697256       11.9739197283
  C         9.8094918983        5.4888220536        6.7794423710
  H         9.6472907113        1.8614967067        6.8313810537
  C        10.1984800543        3.4998129751        5.6788325882
  H        11.2370240490        3.7470047643       10.3899870728
  H        11.7797605091        2.8093836863        8.9581291830
  C        12.2992482660        1.9096030141       10.8541548443
  C         7.6106359091        6.5736066112       12.6476680176
  C        10.2294236278        4.8629514076        5.5907697399
  H         9.8804629253        6.5948183999        6.7779148226
  C        10.6358522509        3.0778353649        4.4558322668
  H        13.2842162758        2.0142659769       10.3202349717
  H        12.0199988156        0.9147229379       10.8673245734
  C        12.4085117551        2.4004691477       12.2674168972
  C         7.4293213608        8.0289475956       12.8536860991
  C         7.1494433361        5.7377081814       13.7144042912
  C        10.6932225079        5.5395893813        4.3577053049
  C        10.8277573027        4.1769410625        3.5930369336
  S        10.9402905440        1.6602063018        3.7008289604
  H        13.2640842774        3.0617570124       12.1980957131
  H        11.4792402661        3.0175787820       12.4370764796
  C        12.5714403640        1.4347166065       13.4202434153
  N         7.7841119781        9.0580738461       11.9801238165
  C         7.1236509355        8.5293696917       14.1164895363
  C         6.8838296199        6.2673600960       14.9658889554
  H         7.2741811125        4.6712804959       13.5804582394
  C        11.9880738713        6.3301787322        4.4328969997
  C         9.6455288558        6.3905292933        3.5414830581
  C        11.0137534234        3.8099111164        2.2594813771
  C        11.1741111781        2.4551056222        2.1252458186
  H        13.3690221284        0.6522336206       13.1934662750
  H        11.6090359366        0.9290864640       13.6284074444
  C        13.0301388822        2.1352791826       14.6741666118
  S         7.6106221860       10.5060716577       12.7321305262
  N         7.1504192177        9.9191251995       14.1574688215
  C         6.7895679469        7.7482941083       15.2285017368
  H         6.6667288120        5.5399222132       15.7139614203
  H        11.9174053381        7.0989529297        5.2225556957
  H        12.0593999278        6.9424344197        3.5637435621
  C        13.2304680368        5.4728015180        4.4953468379
  H         9.5296286077        7.3852793852        3.9911465955
  H        10.0235873245        6.5796668787        2.5174953260
  C         8.2703196024        5.6578734795        3.3296670789
  H        11.1121746189        4.6027221226        1.4993774362
  C        11.4823119479        1.6320949674        0.8323474893
  H        14.0915484377        2.3808823310       14.5928790828
  H        12.4274022915        3.0555582686       14.7728333210
  C        12.7764437501        1.2869099646       15.9661059978
  C         6.5727532792        8.3799564242       16.4526409409
  H        13.1089315209        4.6762628226        5.1726514626
  H        13.4054584211        4.9833782094        3.5431967530
  C        14.5087674014        6.1901466772        4.7643339058
  H         7.8529674223        5.6483979375        4.3232448795
  H         8.3334231054        4.7118869719        2.9223847781
  C         7.2793768982        6.4154008905        2.5589753365
  C        11.6383496433        0.2158751988        0.7689515050
  C        11.6438716194        2.3147682293       -0.3861207258
  H        13.4139115140        0.3988722209       15.9396123611
  H        11.7354945593        0.9089785310       16.0474161907
  C        12.8570131862        2.0492275870       17.2163554901
  H         6.3996887793        9.4303223157       16.4270039781
  C         6.3410685173        7.8938107771       17.7292816850
  H        14.3759293439        7.2454142471        5.1498768601
  H        14.9501600945        6.2230760427        3.7872735268
  C        15.5102076528        5.3307261261        5.5444942690
  H         6.9286616953        7.2539348134        3.1729051994
  H         7.7892195731        6.8578961290        1.7263206434
  C         6.2044686040        5.4418312209        1.9921900510
  N        11.3580274022       -0.6532122980        1.7923030756
  C        11.9323152551       -0.4322157710       -0.4267558049
  C        12.0040446540        1.7131912786       -1.5875361846
  H        11.4930886503        3.3618387773       -0.3794084775
  H        13.0540593999        3.1431574490       17.1144487257
  H        13.7703289866        1.6794778774       17.7154820012
  H        12.0057978882        1.8519868141       17.8276491850
  S         6.1630514260        6.2100256662       18.2325028041
  C         6.2383481816        8.8883365139       18.7511417112
  H        15.1099514629        5.0891473549        6.5459996043
  H        15.5994609957        4.3873944330        5.0218462403
  C        16.8629996891        5.9402251052        5.6594308529
  H         5.8940801463        4.7475813470        2.8003331315
  H         6.7291048380        4.8951153109        1.1673116726
  C         4.9738819947        6.0197413644        1.3536918111
  S        11.5567347318       -2.1711391312        1.2590015720
  N        11.8695974791       -1.8396114427       -0.3111281147
  C        12.2074746150        0.2533113162       -1.6846059536
  H        12.1378910709        2.3700694806       -2.4299278030
  C         6.0134039211        6.9087644333       19.8839214881
  N         5.9783548304        8.2878677582       19.9466379081
  O         6.3948678512       10.0944157200       18.4908142343
  H        17.3889485973        5.8629558602        4.7302694428
  H        16.7518172376        7.0276057018        5.8018036228
  C        17.5973087791        5.3423636765        6.7991626564
  H         5.0961030867        5.8143668477        0.3384681202
  H         4.1586904825        5.3467210115        1.6687323716
  C         4.7327960785        7.5391483356        1.6936771171
  C        12.5548907569       -0.4519883399       -2.9042275719
  S         5.5040614292        5.9555418874       21.2583397462
  C         6.2273720600        8.9638452577       21.1996277465
  H        16.9028856379        5.4432718076        7.7196334440
  H        17.8942738692        4.3406908449        6.4925822489
  C        18.9176250873        6.0393176090        7.0972292485
  H         5.5278175583        8.2130686666        1.3036190150
  H         4.8329660630        7.7514642635        2.7705307976
  C         3.4344365144        8.0943730567        1.1538307851
  H        12.2642849233       -1.4732859879       -2.7626270743
  C        12.9656135415       -0.0936296100       -4.1512423857
  H         5.9639793844        8.4381320502       22.1237814981
  H         5.6945873084        9.8735741983       21.2421484122
  C         7.6758269816        9.2165580753       21.3963771408
  H        19.2989685454        5.6861442606        8.0325814958
  H        18.7976037823        7.0753867758        7.2648796513
  C        19.8856888052        5.8505803543        5.9525377613
  H         3.4664778483        7.8632250089        0.0928742097
  H         2.6151801718        7.4455798289        1.6233301093
  C         3.0738972119        9.5900453898        1.2955147112
  S        13.3719574436        1.4902541814       -4.7249142196
  C        13.1088172974       -1.2159314772       -5.1142057032
  H         8.1945366657        8.2944842507       21.2672940708
  H         7.8508267055        9.5737703907       22.4596132681
  H         8.0440016281       10.0648395703       20.7992214649
  H        20.9092816341        5.6830119019        6.2707178443
  H        19.5731595435        4.9925603655        5.3189023339
  H        19.8459916724        6.7244436707        5.2179969705
  H         3.2365075653       10.0097854790        2.2660288007
  H         3.6200921329       10.3052207608        0.5835452399
  H         1.9658982013        9.7590851614        1.0448048432
  C        13.9020244163        0.6530460907       -6.2148880059
  N        13.7630430261       -0.6592171284       -6.1839881477
  O        12.8297990025       -2.3917018505       -4.8229166247
  S        15.0459075099        1.3911994645       -7.3729160498
  C        14.0394345061       -1.5327406181       -7.2614118205
  H        14.2783819680       -2.5468027623       -6.9564965702
  H        14.8481594173       -1.1411828502       -7.9298273019
  C        12.8692532493       -1.4627823545       -8.1900000945
  H        11.9491661937       -1.7844459156       -7.7671814918
  H        13.0628598318       -2.2711953452       -8.8331649812
  H        12.7369894987       -0.4914928335       -8.6905629237
