352
 i =    18500, time =     9250.000, E =       102.7703686583
  H        10.2499581944        4.3352983910       31.7881586501
  C        10.7049446108        5.3101087042       31.8331783187
  H         9.8868344882        6.0353040237       31.6082302172
  C        11.8329516916        5.5263939289       30.7633248731
  C        11.1773917506        5.5806153560       33.3488891063
  C        11.5093885217        4.8412234854       29.3746017294
  H        12.0776239339        6.5339216773       30.6841301940
  H        12.7755170339        5.1080058252       31.1079718642
  H        11.7820428845        6.4422940597       33.3838638198
  H        10.2592971874        5.6569531514       33.9662037741
  H        11.7468948351        4.6424422031       33.6623101546
  C        10.6021047868        5.6845150547       28.5164370957
  H        11.0389810313        3.8620709095       29.4614753299
  H        12.4175211771        4.5026309080       28.8992153610
  C        10.8121484288        5.3667744342       27.0667598552
  H         9.5434610717        5.5386266539       28.6318327797
  H        10.7994848966        6.7438285221       28.5342534284
  C         9.6542640285        4.7834391393       26.2317404438
  H        11.7237312516        4.7503248130       26.8102632316
  H        10.9958645720        6.3766139828       26.6347788260
  C         8.4633419097        5.6517353128       26.1345375455
  H        10.1269384300        4.5471999592       25.1853835709
  H         9.4387032510        3.8925628053       26.8151473246
  C         7.1992030372        5.0031640937       25.3913754139
  H         8.0235456076        5.9725890505       27.1137138893
  H         8.7539438067        6.5545590250       25.5875117867
  C         6.7407464248        3.6658206761       26.0516432138
  C         7.7175091745        4.2483653140       24.1997472303
  C         6.0103226568        5.9282910447       25.0746915286
  C         7.1087621323        2.5320079495       25.3131863543
  C         6.0769669279        3.3438222558       27.2621871303
  C         7.6720957752        2.9055469158       24.1101139106
  C         8.1272779909        4.8354865237       22.9917345090
  H         6.3472410321        6.7639724604       24.3658651649
  H         5.7742181347        6.3268305242       26.0908067928
  C         4.7192837898        5.2404832355       24.5277533327
  S         6.6042925537        1.0767487097       26.1065883134
  C         6.0586091005        1.9985330685       27.4820447135
  H         5.9061374504        4.1666162810       27.9273841948
  C         8.0456393034        2.2774462949       22.9948399383
  H         8.2572746824        5.9305020834       22.9328536347
  C         8.4257952872        4.2346240383       21.8372977788
  H         4.9871105614        4.7365006798       23.6539129939
  H         4.4506639645        4.4647562968       25.1800579568
  C         3.4809173861        6.0733222674       24.3671732809
  C         5.7647807072        1.3395338169       28.7885550059
  C         8.4405896714        2.8910714191       21.7987258907
  H         8.0786441898        1.2172974959       23.0574170884
  C         8.9242883033        4.6364373403       20.5980233154
  H         2.6818868426        5.4336755681       23.9877437537
  H         3.6093774514        6.8892912836       23.6945928935
  C         2.9606267973        6.5847766530       25.7584516022
  C         5.7257784821       -0.0376879195       29.0727810840
  C         5.4064326089        2.2600431599       29.8616868307
  C         8.9293183053        2.2321629479       20.4911853647
  C         9.1982857897        3.5719025604       19.7918275787
  S         9.1419740734        6.2213982727       19.8909471906
  H         2.1544388535        7.3103678927       25.5737435796
  H         3.8071517813        7.0370900201       26.2643988716
  C         2.4028601210        5.4702626312       26.5734577170
  N         6.0541008492       -1.0680956848       28.1341079768
  C         5.3765592850       -0.5882745994       30.3246055147
  C         5.0647049984        1.7856012726       31.1109108560
  H         5.1577324960        3.3259259735       29.7682906755
  C         7.8116450629        1.4115974777       19.8811307780
  C        10.2043130329        1.3793342857       20.6083863594
  C         9.5509336728        3.9769464096       18.5231670357
  C         9.5982197426        5.3450636277       18.4671429419
  H         1.4505962521        5.2966000842       26.0227084091
  H         2.9325333762        4.5470896612       26.6511274093
  C         2.1274557220        5.8589064218       28.0724227596
  S         5.8024792621       -2.5173671555       28.8455125793
  N         5.3576946334       -1.9960610680       30.3158819268
  C         5.0084057075        0.3127444895       31.3577546083
  H         4.7357531691        2.5124707460       31.9103566922
  H         7.4217094183        0.7095195686       20.6865762824
  H         8.1474075393        0.8900581068       19.0481088906
  C         6.5472959584        2.2169973785       19.6274093666
  H        10.4028694196        0.9984569440       19.6239140072
  H        10.1321407573        0.4830879819       21.3103168776
  C        11.4088340673        2.2781879425       20.9285595992
  H         9.7295268297        3.1703309062       17.7931848903
  C         9.9378522320        6.1398842250       17.2505983806
  H         2.2554577707        6.8708693617       28.1105927324
  H         2.9000562897        5.5074349565       28.7455515200
  C         0.8778339054        5.2674659427       28.6209278641
  C         4.6681604112       -0.2542573639       32.6193133717
  H         6.8216889867        3.0506741391       18.9219891483
  H         6.2018515511        2.6888313882       20.5712097027
  C         5.3386307649        1.3590864457       19.1762455202
  H        11.2133433503        2.7691058598       21.8728331846
  H        11.6635513719        3.1249358296       20.3068731413
  C        12.7291670136        1.5090347542       20.9215926235
  C         9.9546192858        7.5831082395       17.0500480844
  C        10.2071121766        5.4716289350       15.9545786682
  H        -0.0253768488        5.7075502670       28.2554860286
  H         1.0636102298        4.2350259852       28.4165971944
  C         0.7895880681        5.5800188324       30.1570665179
  H         4.6623538383       -1.2859227386       32.5784535635
  C         4.4163338337        0.2085920561       33.8710333485
  H         5.0203360589        0.5791645614       19.8534771702
  H         5.5651527284        0.8210930242       18.2728166023
  C         4.0458616923        2.1602306922       18.9270223586
  H        12.6593068888        0.6069422957       21.4969997199
  H        12.8172118010        1.2793114122       19.8951734713
  C        13.9815712472        2.3424494433       21.2551377049
  N         9.7887887411        8.4673922053       18.1216166680
  C        10.2613417953        8.2526338382       15.8979602805
  C        10.4061033471        6.1723523494       14.7498775867
  H        10.0916049539        4.4633902286       15.8096863379
  H         0.0566500033        4.8501354277       30.5154432991
  H         1.7009164574        5.5216839917       30.8240623982
  H         0.3985182061        6.5498590432       30.4088637907
  S         4.2964973588        1.8565787844       34.3489588825
  C         4.2641281740       -0.8314343665       34.9657053544
  H         4.1339290559        2.9961636003       19.6241536714
  H         4.1010476029        2.6292687653       17.9422615105
  C         2.7600327812        1.2938440358       19.0351606228
  H        14.0608465777        3.2170028271       20.6134291672
  H        14.8731743837        1.6713216837       21.1499537873
  C        13.8935718605        2.8960938036       22.6799613225
  S         9.8612491961        9.9857932541       17.5474393850
  N        10.2228709741        9.5657692844       16.0091306976
  C        10.5167793152        7.6241376590       14.6854347186
  H        10.3841539789        5.6352556389       13.7814695440
  C         4.0424325943        1.1813453879       36.0414198402
  N         3.9640341640       -0.1879538915       36.0984345023
  O         4.4269050264       -2.0439883936       34.7977726848
  H         1.9241136813        1.9993461624       18.8938202785
  H         2.5931356670        0.8931793844       20.0118405564
  C         2.7178549050        0.1946160494       17.9640654057
  H        13.4926262834        3.9080554906       22.6964505251
  H        13.2133067528        2.2616557024       23.2985576249
  C        15.2438742854        3.1247242348       23.3179699195
  C        10.8998357372        8.4152541383       13.5353637478
  S         3.5060649953        2.0754657594       37.4725277902
  C         3.8355046378       -1.0398963132       37.3215512145
  H         2.1422059324        0.5306838004       17.0736569991
  H         3.6916211535       -0.0099759870       17.6100834287
  C         2.0542896892       -1.0751015040       18.4763398390
  H        15.0820339238        3.4880631396       24.2881457839
  H        15.6833143747        3.8617530609       22.7751968809
  C        16.2476459138        1.9575048486       23.4422396370
  H        10.7681735487        9.5011992277       13.6246850796
  C        11.3763564337        8.1796913641       12.3054035702
  H         3.3845006723       -0.4764653177       38.1371851120
  H         3.2112750065       -1.9082836767       37.0820639593
  C         5.2338093082       -1.4289137757       37.9180167712
  H         1.1221742332       -0.7579812985       18.8645313353
  H         2.6800390069       -1.4745556734       19.2499492254
  C         1.9005595936       -2.1364491758       17.2960857201
  H        16.4894216048        1.7318752189       24.4775759013
  H        15.9485053602        0.9634400805       23.0536758427
  C        17.5819248118        2.2340721149       22.7895367956
  S        11.8963211587        6.6540334518       11.7224277841
  C        11.3478823109        9.2277601616       11.3227705582
  H         6.0207539989       -1.1411147724       37.1891705443
  H         5.3422285823       -0.7269180414       38.7525604945
  H         5.4040617049       -2.4203543722       38.4603580046
  H         1.5519768732       -3.0498043293       17.7137539409
  H         2.8351111984       -2.3831973048       16.8621580629
  H         1.2173135215       -1.8372340575       16.5818833170
  H        18.0987649613        1.3150561046       22.7816766799
  H        18.0682965005        2.9749154527       23.3694702201
  H        17.4694892644        2.5706676113       21.7689098121
  C        12.2777951650        7.5199874218       10.2078354965
  N        12.0452158252        8.8164839654       10.2519844862
  O        11.1142122325       10.3954089151       11.6112723560
  S        12.5925681394        6.8864252496        8.6200791085
  C        12.1474605857        9.8376472858        9.2191913383
  H        12.5977102234       10.7865047553        9.5176327611
  H        12.7475372464        9.5924456354        8.3591857125
  C        10.7423092672        9.8039656532        8.5324781125
  H        10.7337652474       10.4855669218        7.7245374375
  H        10.5765490991        8.7761507306        8.1093240538
  H         9.8278753578        9.9902635361        9.0400241984
  H         4.5528401634        1.9013068653       12.3266101652
  C         3.6490562865        2.5144592906       12.2920115768
  H         4.1053577378        3.4326971968       12.3398099081
  C         2.7745567203        2.3567135172       11.1032608259
  C         2.9726834310        2.4090128518       13.6744903882
  C         3.6096327582        2.7701261403        9.9205811423
  H         1.9070069536        3.0083816554       11.1348977702
  H         2.3050154562        1.3702236358       10.9419486175
  H         2.1029909088        1.8283264171       13.6638474873
  H         2.6691090247        3.4526073337       13.9902331992
  H         3.5904610767        1.8593623291       14.3342327086
  C         4.5477299788        1.5832139498        9.5367510699
  H         2.9674000605        3.0300827711        9.0650929176
  H         4.1821738917        3.6523802546       10.1349925656
  C         5.4651448185        2.0197141037        8.4052260696
  H         4.0609267873        0.7328120682        9.2264446559
  H         5.2312828271        1.3041421324       10.3214262322
  C         6.6644194266        2.8339713179        8.8872332234
  H         4.9566374164        2.7051841971        7.6589038515
  H         5.6748977194        1.0692560145        7.8479951397
  C         7.8908154992        1.9925294405        9.0506658247
  H         6.9093886170        3.6331262827        8.1861240865
  H         6.2439859762        3.2847278901        9.8062736733
  C         9.1402382721        2.8768419475        9.3238986325
  H         7.9851990316        1.4236845869        8.1152975573
  H         7.7260224387        1.2420817819        9.8121058740
  C         8.7922246629        4.2575169993        9.9281674855
  C         9.5556672642        3.4898261239        8.0555884107
  C        10.3645189054        2.2014069227       10.1529265980
  C         9.0169017492        5.3202531664        9.1385201724
  C         8.2638791442        4.6478237522       11.1978199521
  C         9.5386147289        4.8610524304        7.9355599151
  C        10.0310932971        2.8102828309        6.9218304652
  H        10.0159682709        2.0856202923       11.1972417628
  H        10.5902215662        1.2000807331        9.8014186490
  C        11.5666747909        3.1403244728       10.1895302418
  S         8.6427745352        6.8559318462        9.9619839693
  C         8.1930626148        6.0016748136       11.3512726508
  H         8.0071236224        3.9086107173       11.9698403105
  C         9.9228147169        5.4868119856        6.7484259581
  H        10.0393503746        1.6936772015        6.9763479955
  C        10.3819750550        3.4084551519        5.7829217987
  H        11.2472481640        4.0548019846       10.6290090209
  H        11.9192844942        3.3849714323        9.1562201751
  C        12.6348565237        2.4371069127       11.0198450384
  C         7.7963577585        6.7325504229       12.5932062337
  C        10.4028289214        4.7395778715        5.5837599940
  H         9.8654707112        6.5026856350        6.6581295958
  C        10.7772631789        2.9689401365        4.5753905096
  H        13.4457761598        3.1265368751       10.9604029117
  H        13.0099762157        1.5499908026       10.5139226293
  C        12.1570030750        2.1183319225       12.4190392350
  C         7.7681387924        8.1045478397       12.8022796029
  C         7.3611229022        5.8912150004       13.7578991268
  C        10.7068253763        5.4063939102        4.2723011534
  C        11.0224477339        4.0361649170        3.6880487073
  S        10.8419084795        1.4140598900        3.8468272442
  H        11.4680834196        2.8956290902       12.7547813831
  H        11.5653560435        1.2111570317       12.4491056103
  C        13.2927880070        1.8420335101       13.4221920557
  N         8.0150749338        9.1374350667       11.9113747768
  C         7.4373959961        8.6899763229       14.0613661707
  C         6.8600616943        6.4539444047       14.9202417387
  H         7.2220399963        4.8091260725       13.6614648681
  C        12.0053146471        6.2704150810        4.2742858413
  C         9.4353562311        6.0600777807        3.6955167363
  C        11.3573548687        3.5629425598        2.4258151249
  C        11.3813964855        2.1809189912        2.3534396482
  H        13.6220286564        2.8265004666       13.7279720752
  H        14.1475490519        1.4135405798       13.0263368303
  C        12.8378343924        1.0918411672       14.6561367564
  S         7.9658583830       10.6253084262       12.6613616425
  N         7.5491040191       10.1145733325       14.1454491866
  C         6.9612676565        7.9543725866       15.1458270844
  H         6.4234112778        5.8890984514       15.6787117578
  H        11.8453044105        7.1608882995        4.9065496960
  H        12.1158641332        6.6913613672        3.2483416605
  C        13.3287350369        5.5945649301        4.7017647171
  H         8.9721628727        6.7402267493        4.4632696890
  H         9.6675642235        6.5555289510        2.7575555226
  C         8.2792789405        5.1337664835        3.2508912589
  H        11.6354455196        4.3523115211        1.7239240242
  C        11.7391580643        1.5149855991        1.0801867523
  H        12.1384920942        0.3031696496       14.3406086825
  H        13.7923730084        0.6023391121       14.9884944377
  C        12.2448257054        1.9728152817       15.7625724042
  C         6.5493146656        8.5967414115       16.3606033621
  H        13.2302281516        4.8375079764        5.4516203064
  H        13.8144940179        5.1881321544        3.7926369223
  C        14.4694162441        6.5101199990        5.1491863634
  H         7.9926134853        4.6180237161        4.2270953560
  H         8.4903020384        4.3182975407        2.5061564904
  C         7.0807348940        6.0288115423        2.8933528734
  C        11.6396346231        0.1146088123        0.8599647102
  C        12.0488600066        2.2747931769       -0.1447627853
  H        11.3880142249        1.4874853615       16.2477652144
  H        11.8520787007        2.8194978777       15.2786877876
  C        13.2417389199        2.5246250362       16.8453472727
  H         6.7621294119        9.6637245366       16.4255120245
  C         6.2854234711        8.1274341614       17.6320246874
  H        13.9383580806        6.9779030763        5.9711800136
  H        14.7263060985        7.1948131855        4.2604726817
  C        15.7047191906        5.5455017707        5.4346897266
  H         6.9142172294        6.8037075104        3.5837608583
  H         7.3221533149        6.3847767923        1.9230316816
  C         5.7695036428        5.2101644660        2.7330277630
  N        11.4651291952       -0.7758097991        1.8482070773
  C        11.9693959923       -0.4744163082       -0.3442862697
  C        12.3700063722        1.6995523334       -1.3573579035
  H        12.2059517225        3.3137939433        0.0122860089
  H        14.2570675161        2.8990133356       16.4488466470
  H        13.4229364294        1.7677556039       17.5688050896
  H        12.8286540712        3.3697274916       17.3956375992
  S         6.0392592531        6.4802506459       18.1045421150
  C         6.2322092371        9.0964248817       18.7499065535
  H        15.4848722490        4.5306777393        5.7251310541
  H        16.0368943516        5.4068188262        4.3970854096
  C        16.7608262827        6.1940529669        6.2730339782
  H         5.3476028466        5.2071902274        3.7200058989
  H         6.0662194255        4.1864855616        2.5591083269
  C         4.8511078368        5.9134569685        1.7294119989
  S        11.3767998269       -2.2809262321        1.1842161719
  N        11.8644421791       -1.8240858027       -0.3095770884
  C        12.2344985976        0.1855282755       -1.5704239963
  H        12.5579894810        2.4001903322       -2.1544953514
  C         5.8355087343        7.0842563918       19.8138089499
  N         5.9857999710        8.4468828336       19.8926611628
  O         6.4066836656       10.2559017356       18.6580944882
  H        17.1635451325        7.1695818620        5.8563198497
  H        16.2778733563        6.7244895650        7.0441417928
  C        17.6590154296        5.2923358974        7.0098510978
  H         5.5013103811        5.9537966332        0.8734927027
  H         4.0144527214        5.3005370600        1.4628817694
  C         4.4602310436        7.3891345987        2.0082201768
  C        12.5511887983       -0.4940862761       -2.7698701166
  S         5.5386436890        6.0409115824       21.2343617448
  C         6.1702398469        9.0539480161       21.2359643115
  H        17.1930591587        4.8246668338        7.8645472427
  H        18.0123277303        4.5099438033        6.4578513359
  C        18.8879527032        6.0121089450        7.5639596313
  H         4.9495619237        7.7650948346        2.9666450683
  H         3.4438559505        7.4777016432        2.3306685505
  C         4.7063831032        8.3301070389        0.7790344647
  H        12.3870119539       -1.5271911340       -2.7699200227
  C        13.0763504746       -0.1298772306       -3.9906548181
  H         5.6197398553        8.4945693077       22.0205920397
  H         5.8265676984       10.1062119478       21.0491525434
  C         7.5830875616        9.0770496322       21.5700924049
  H        19.4167859296        5.2760924308        8.2477741874
  H        18.5111741457        6.8309495556        8.0717738882
  C        19.9868932527        6.3775987974        6.5833877100
  H         5.5718087968        8.0266893716        0.2363855366
  H         3.8882064856        8.2436246327       -0.0041076168
  C         4.8829778802        9.7276221561        1.2384511782
  S        13.6432370687        1.4542377176       -4.3035570433
  C        13.1375641175       -1.1159432249       -5.0468739794
  H         7.8914480934        8.0733429580       21.8799110166
  H         7.7073963978        9.8000093768       22.4474883665
  H         8.1381751351        9.3777566601       20.6844544869
  H        20.4387832544        5.4137427915        6.2546348316
  H        19.7157805006        7.0303877888        5.7421898513
  H        20.7518636796        6.7692226233        7.2361722159
  H         3.9561200052       10.1456409082        1.1351818337
  H         5.2559961125        9.7660740924        2.2666595499
  H         5.6160467593       10.2963374688        0.6054984727
  C        13.9340767808        0.8275229334       -5.9016752115
  N        13.7162181378       -0.5127079910       -6.0968711118
  O        12.8293561187       -2.3076200359       -4.9362574532
  S        14.5676058579        1.7922704958       -7.1818233298
  C        13.7901502041       -1.1586315673       -7.4819675296
  H        14.1143691290       -2.1706827610       -7.5323346905
  H        14.5987859883       -0.5984616343       -8.1083926970
  C        12.4708304075       -1.0849677386       -8.2283977888
  H        12.0939186099       -0.0938239014       -8.2257592710
  H        11.6986490297       -1.7896100409       -7.8087128551
  H        12.6204556236       -1.3977373495       -9.2286039671
