352
 i =    32900, time =    16450.000, E =        98.6710181679
  H         9.6828808674        5.0808004213       32.4278054243
  C        10.4591231097        5.8306489281       32.7070680916
  H         9.8540197902        6.5100854634       33.2825112602
  C        11.0480241964        6.5141429705       31.4770207791
  C        11.5255179091        5.1417843428       33.5503539871
  C        11.2969667939        5.6452289004       30.1587405040
  H        10.3667076330        7.3530303635       31.2669143657
  H        12.0248635301        7.0565917545       31.7087716546
  H        11.1810968875        4.4814659678       34.2612576656
  H        12.0971612001        4.5784243870       32.7799705103
  H        12.0475454046        5.8998428514       34.1791279822
  C        10.2079849305        5.8643359606       29.0995754572
  H        11.2005955505        4.5514608341       30.2128302661
  H        12.2389186846        5.9067726284       29.6807640708
  C        10.7284370095        5.4843361631       27.7140278890
  H         9.3690601124        5.2360608474       29.1985013410
  H         9.9252130758        6.8798471247       28.9565282113
  C         9.6512928764        4.9681165597       26.6472571618
  H        11.4302172499        4.7221724341       27.9447987946
  H        11.2220638794        6.3703219532       27.3823516835
  C         8.3973576499        5.8712200164       26.4287751864
  H        10.0631072479        4.6982407567       25.6213042168
  H         9.2627180849        3.9980013232       26.9322456805
  C         7.1740937710        5.1302089762       25.7284987922
  H         8.1018759198        6.0655430939       27.5259483228
  H         8.6691105036        6.7325754220       25.8809634830
  C         6.7806842306        3.8000267174       26.4053051520
  C         7.6731455422        4.4059349383       24.5307404806
  C         6.0132050571        6.0570538351       25.3909955326
  C         7.0325264909        2.6424745895       25.6583952791
  C         6.3388262200        3.4683267329       27.6440302175
  C         7.5875456223        3.0260702905       24.4721188432
  C         8.0732364717        4.9541676682       23.3238922079
  H         6.3674858483        6.8319514960       24.6729073358
  H         5.7589872755        6.6582277635       26.2050778434
  C         4.6965717839        5.4451237904       24.8349258255
  S         6.5767751475        1.1321529328       26.3968090353
  C         6.1638514453        2.1424990082       27.8139034126
  H         6.2235949998        4.3231452749       28.3766763752
  C         8.0213061756        2.4074335986       23.3281618761
  H         8.1135093828        6.0235349547       23.3328487879
  C         8.4207432031        4.3577637054       22.1487086727
  H         4.7754121926        5.1534075610       23.7676478413
  H         4.5210062842        4.4846781599       25.3342852638
  C         3.4484721436        6.3368665938       25.1415328481
  C         5.7554878953        1.3995699844       29.0748656517
  C         8.3328349562        3.0049568893       22.0807392537
  H         8.0862870455        1.3499658849       23.4060951909
  C         8.7782746370        4.7474881143       20.8880375013
  H         2.6234952843        6.2575721861       24.3921998531
  H         3.6939076128        7.3798345549       25.0502240823
  C         2.8904949506        6.2500003857       26.5868457189
  C         5.8485330034        0.0189622572       29.3823091350
  C         5.3500299350        2.1723702626       30.2638313040
  C         8.6584885675        2.3485146280       20.8058094956
  C         8.9355971850        3.6294955678       20.0963314724
  S         9.1791580319        6.2202618857       20.0908640604
  H         1.8816919128        6.6591696158       26.6031588930
  H         3.5071291939        6.8005304814       27.2703927426
  C         2.7153557017        4.8531890017       27.1362447419
  N         6.2891503747       -0.9066028677       28.4584171254
  C         5.6781347722       -0.5412934433       30.6595618924
  C         5.2163785629        1.6002754986       31.5647140471
  H         5.1375237015        3.2225804199       30.2660125406
  C         7.4330180116        1.5310457197       20.1234418080
  C         9.9712625915        1.5197186154       20.8361204847
  C         9.2134778173        3.9674603317       18.7962196938
  C         9.2660488962        5.2959210497       18.5787569742
  H         2.2830877035        4.4024470978       26.2788386073
  H         3.6419718816        4.3421544279       27.2478692207
  C         1.8203040176        4.7856460516       28.4003542995
  S         6.3503923995       -2.3365329223       29.1651955133
  N         5.8682306078       -1.9244791772       30.6138822895
  C         5.3578907966        0.1900855943       31.8384511909
  H         4.8889797689        2.2915830328       32.3310679871
  H         7.3000146922        0.7368635606       20.8052310882
  H         7.9613277568        1.2626022094       19.2343442158
  C         6.1394274790        2.2759898269       19.7538044241
  H        10.2013451982        1.1677286082       19.8447515867
  H         9.8031909507        0.6461360265       21.5209794781
  C        11.2164483549        2.2694657307       21.2759052209
  H         9.2976143666        3.1978340001       17.9462393818
  C         9.4951598816        5.9673987379       17.2293165316
  H         1.6940245437        3.7586380841       28.6831613527
  H         0.8263150770        5.1260455130       28.1601907541
  C         2.2237392602        5.5865856404       29.6529984269
  C         5.2302515495       -0.4861978035       33.0842577673
  H         6.4017379776        3.1769465009       19.1786819063
  H         5.6516142062        2.6531615109       20.6721706874
  C         5.2320365435        1.5017535837       18.7251545382
  H        11.0599512279        2.8084117747       22.2179154634
  H        11.5141805478        3.0512654803       20.5791749020
  C        12.3962513919        1.3157481691       21.2636871754
  C         9.7428704495        7.3487470265       17.0862615717
  C         9.7360525342        5.1540525080       16.0484318026
  H         3.1179217292        5.1480298161       30.0691553608
  H         2.3489541990        6.6593600544       29.4153853762
  C         1.1723154157        5.4621031100       30.7549672832
  H         5.2537910240       -1.5785830109       33.0206492308
  C         4.8479515754       -0.0958020820       34.3115309663
  H         5.4569333414        0.4049057261       18.9144730951
  H         5.6238947787        1.6079356742       17.6940650931
  C         3.7946584624        1.8056201433       18.7914314037
  H        12.4434866377        0.8107557212       22.1884000255
  H        12.2492217316        0.6609858585       20.4598183483
  C        13.6746283275        2.0468584463       20.9980814846
  N         9.6706722124        8.3429000654       18.0595814941
  C        10.1655989988        7.9001307209       15.8787758717
  C        10.2132061983        5.7416690961       14.8541555932
  H         9.3208160674        4.1559020658       15.9699441959
  H         1.7381366308        5.5173872512       31.6587690347
  H         0.5103419932        6.3370004324       30.7302529640
  H         0.7356684900        4.4512245706       30.5579204331
  S         4.6860530655        1.5299139408       34.8794644933
  C         4.7892977616       -1.1401311035       35.3392370825
  H         3.5668759294        2.7292017230       19.2738993894
  H         3.4896782561        2.0453091501       17.7454690187
  C         2.8311531238        0.7176219607       19.3870355947
  H        13.5518455324        3.1516144075       21.1762767913
  H        13.8866900089        1.9629119164       19.9185836157
  C        14.8789673148        1.5843202902       21.7266760129
  S         9.7854596349        9.8134067527       17.3520900068
  N        10.1078976288        9.2921937596       15.8755119445
  C        10.4231147625        7.2254542209       14.7127012285
  H        10.4211931994        5.0217949699       14.0508464251
  C         4.3386555951        0.8079469317       36.4725284311
  N         4.5633915539       -0.5277162989       36.5481337666
  O         5.0000889153       -2.3539847669       35.1591223381
  H         1.8683402226        1.2159196242       19.5563076947
  H         3.1035598074        0.1865308956       20.2908159196
  C         2.5619141827       -0.3617222051       18.4009677763
  H        14.6655432695        0.6238373968       22.1655272532
  H        15.5360276436        1.2919036317       20.8731176546
  C        15.5446063848        2.6315381183       22.6151244694
  C        10.7231262723        7.9587538923       13.5027465464
  S         4.0359489065        1.6408897257       37.9899291693
  C         4.6244165646       -1.2484831956       37.7942797227
  H         1.8224200685       -0.0432436501       17.6560279518
  H         3.4469500913       -0.6568255310       17.8482634086
  C         1.8856358117       -1.5912439102       19.0365243715
  H        14.7451299530        3.1743083654       23.1188265501
  H        16.0507266204        3.4619997339       22.0755440139
  C        16.5545312023        1.9446055671       23.5765667128
  H        10.3814252262        8.9447976824       13.5012336801
  C        11.2311328750        7.5203781434       12.3000289604
  H         4.0411453438       -0.8958007081       38.6211282994
  H         4.4567485589       -2.2904148445       37.6357965880
  C         6.0629208305       -1.1182507567       38.4969809601
  H         1.1096833186       -1.3700352921       19.7186446002
  H         2.6495044695       -2.0586370759       19.7050000118
  C         1.2040849775       -2.4909528571       17.9295905380
  H        16.6885028435        2.6487923076       24.4464931666
  H        16.1065797275        1.0364062665       23.9309458568
  C        17.9363508683        1.6204284579       22.9549124664
  S        11.8995149204        6.0062760715       11.9006944845
  C        11.3917317897        8.5671530854       11.2075023014
  H         6.1381691394       -1.8875655752       39.2214004961
  H         6.9160518239       -1.3318660366       37.8935553726
  H         6.0604054992       -0.1255628289       38.9779375462
  H         0.4034409631       -1.9487461022       17.3768885920
  H         0.6589514743       -3.2777113425       18.3759547579
  H         1.9015828473       -3.0092218147       17.2149853188
  H        17.8886957277        1.1781410268       21.9134716734
  H        18.6351553151        1.1621018406       23.6834788146
  H        18.2988387752        2.6047940059       22.6490729081
  C        12.1365999917        6.6500168789       10.2639760594
  N        12.0562569723        7.9834753399       10.1406674345
  O        11.0174329898        9.7611306502       11.2760836542
  S        13.0202245164        5.6128535000        9.1819170641
  C        12.2953933639        8.7206511677        8.9085773595
  H        12.6319004233        9.8184398437        9.1715151612
  H        13.0779824886        8.3342759107        8.2217547944
  C        11.0127940802        8.7473392230        8.1856735423
  H        10.7468980356        7.7233365282        7.9423386646
  H        10.1919407729        9.0822080353        8.7715918568
  H        11.1401454304        9.3664540303        7.2629280672
  H         2.8881233701        1.5046523966       13.4123144730
  C         3.4987803814        1.3726890059       12.4793373313
  H         3.6396845315        0.2813881624       12.3040792380
  C         2.6872794798        1.9691369140       11.3087422573
  C         4.9381168295        2.0049840029       12.6234946843
  C         3.4730815052        2.2217328398       10.0360507604
  H         2.4286721750        2.9290822789       11.6039731455
  H         1.7439440329        1.5004940583       11.0500679793
  H         5.5254982603        1.4839258233       13.4051833287
  H         4.9257686043        3.0601239946       12.8501033420
  H         5.5244809984        1.7574211721       11.7641196295
  C         4.1223108160        1.0429154450        9.2860796603
  H         2.6848869036        2.6492901656        9.3652173752
  H         4.1491949562        3.1359842614       10.1219588274
  C         5.1956079201        1.5140939670        8.2716456148
  H         3.3545932589        0.3745827383        8.8431494551
  H         4.5661084043        0.4848487154       10.1412126049
  C         6.3598387913        2.4442360326        8.6352526368
  H         4.6996977171        2.0932000005        7.4655961259
  H         5.5857014160        0.6580687604        7.6916491659
  C         7.4351205880        1.7241490903        9.3760051061
  H         6.6904447548        2.9119765404        7.6649021428
  H         6.0194538875        3.2492700118        9.3272772026
  C         8.6549586434        2.6653937722        9.5835202690
  H         7.5921660242        0.8312623043        8.8052182014
  H         7.0223384688        1.2987387172       10.2850895693
  C         8.3234462922        3.9741941500       10.1408603523
  C         9.1127178987        3.2997707659        8.2685713241
  C         9.8392393102        1.9476899350       10.2737160107
  C         8.5929251343        5.0586794029        9.3273541935
  C         7.7806674850        4.4507989701       11.3816738111
  C         9.1075744210        4.6301066959        8.1409464803
  C         9.6019643691        2.6929906753        7.1168101556
  H         9.4135170754        1.3764732852       11.0769988624
  H        10.4374973450        1.2536689516        9.5913399204
  C        10.9408427280        2.8303752931       10.7956584268
  S         8.2404926007        6.6452718744        9.9580854404
  C         7.7611703288        5.8234619536       11.3964777364
  H         7.5493947367        3.7995874913       12.1945289588
  C         9.3836115087        5.2151603722        6.9593324308
  H         9.9239185972        1.6336560271        7.1575596821
  C        10.0100782485        3.2765139551        5.9762804751
  H        10.5702684508        3.5332626930       11.5146161782
  H        11.4503334575        3.3583469644        9.9414772192
  C        12.0348032601        1.9911537729       11.4937760651
  C         7.4055301716        6.5915121053       12.6931348923
  C         9.8513957856        4.5924072697        5.8470509784
  H         9.3378527055        6.2900283342        6.9403479055
  C        10.6344354215        2.8733939947        4.8040853287
  H        12.7533694681        1.6869723146       10.7427010669
  H        11.6110422655        1.1681372926       12.0309651221
  C        12.9666016938        2.7223170651       12.4909387431
  C         7.4247398725        7.9841867287       12.8793606305
  C         7.1301024160        5.7983114002       13.9255450754
  C        10.3153823704        5.2867439175        4.6093233592
  C        10.8107382277        3.9953090576        3.9813056897
  S        11.0556180533        1.4218569223        4.1252094162
  H        13.6925337784        3.2959833405       11.9371565115
  H        12.5818457012        3.6038043871       12.9847772728
  C        13.7412622225        1.8508017321       13.5109024523
  N         7.8260201185        8.9212088012       11.9425627614
  C         7.2085302477        8.5443969113       14.1418335445
  C         6.7803399102        6.3482588900       15.1073926342
  H         7.0833855072        4.7337571423       13.8850413665
  C        11.5634961189        6.0882753643        4.8856967213
  C         9.1791657639        5.9253672375        3.7688349114
  C        11.1858828191        3.6182325217        2.7291735129
  C        11.3713114709        2.2446799022        2.6565421503
  H        14.4072805835        2.5384067736       13.9660248410
  H        14.2415404356        1.1043891382       12.9721045798
  C        12.8996084754        1.2166854328       14.6738191293
  S         8.0366240014       10.3505666712       12.7270487570
  N         7.3977508489        9.8927168825       14.1766709598
  C         6.8063961081        7.8332457594       15.3001078872
  H         6.4930056981        5.6775684532       15.8796255990
  H        11.2633528040        6.8366039522        5.5764423736
  H        11.8765841537        6.6787435102        4.0441315498
  C        12.7760460486        5.3623684967        5.5762084942
  H         8.7876930929        6.7502336783        4.2569194555
  H         9.6495099096        6.2283570959        2.8069097166
  C         7.9725315649        5.0205421721        3.5567278205
  H        11.3893748107        4.3386489797        1.9845574503
  C        11.6109039756        1.5117407986        1.3400948810
  H        11.8972337496        0.8841695459       14.4086867506
  H        13.5148507806        0.3948677835       14.9857637640
  C        12.7397026886        2.2672663247       15.8402661506
  C         6.5256487022        8.5047513692       16.5037877311
  H        12.4754684647        5.2919492431        6.5875494642
  H        12.9787613274        4.3886106173        5.0640167436
  C        14.0528557127        6.2278554133        5.6701142398
  H         7.4717126019        4.7839540190        4.5683745307
  H         8.3384287194        4.0452689003        3.1652539520
  C         6.9421403247        5.5151540321        2.5074366927
  C        11.6937414206        0.0913325639        1.2147849654
  C        11.8124880351        2.2454993652        0.0739877235
  H        11.8626302838        2.8717577564       15.5214967576
  H        13.5876046382        2.9569804268       15.8520885542
  C        12.4830336585        1.6743300570       17.2428133170
  H         6.5052568970        9.5298065935       16.5117817145
  C         6.3083870091        8.0405707479       17.7699122338
  H        13.8702595302        6.9477400029        6.4125107075
  H        14.1668615305        6.7802315280        4.7889741246
  C        15.2101761219        5.3227952884        6.0291229449
  H         7.5752897643        5.8691206053        1.6826740310
  H         6.4176044868        4.6623513542        2.1121212602
  C         6.0511695737        6.5710306733        3.0425612128
  N        11.4900546978       -0.8275713377        2.1855986481
  C        12.0255480896       -0.4940536072        0.0176306980
  C        12.1639767570        1.6173662632       -1.1573055031
  H        11.8349135536        3.2709147974        0.0569074251
  H        12.0565717794        2.6111274704       17.8936288805
  H        13.3656779145        1.2917211564       17.6556059545
  H        11.8083435599        0.8888720694       17.3739645861
  S         6.0292724356        6.4050832559       18.2777510850
  C         6.2279190745        9.0502843061       18.8702728758
  H        14.7887198071        4.5197587852        6.7264324583
  H        15.6385141399        4.9352823420        5.1168992946
  C        16.3055108003        5.9962722419        6.7699181204
  H         6.3111845331        6.7738041724        4.1239359242
  H         5.0496545753        6.1654651656        3.0227291424
  C         5.8068080214        7.8274819829        2.2146358686
  S        11.6842848328       -2.3165482366        1.6124856661
  N        12.0443154759       -1.8706231299        0.0995680181
  C        12.2941820305        0.1047959631       -1.1863752945
  H        12.2925851312        2.2763962778       -2.0109650273
  C         6.1125071959        7.0388724583       19.9544991440
  N         6.1543628974        8.4074897396       20.0265637588
  O         6.4649096250       10.2827765855       18.7038821812
  H        16.6893919265        6.7206203972        6.0457179912
  H        15.9422840942        6.6439764102        7.5758410302
  C        17.2876464058        4.9090567938        7.2763824901
  H         6.7140376461        8.3113529470        1.9385081476
  H         5.4258891269        7.4755080294        1.2713749314
  C         4.8354303561        8.8493995556        2.8650881952
  C        12.6520183892       -0.6748097145       -2.3075674202
  S         5.5414968915        6.0977492102       21.3190907783
  C         6.2106393268        9.0858658134       21.3311133170
  H        16.7194367657        4.3236259662        8.0528646262
  H        17.3988942815        4.1564248516        6.5219264291
  C        18.6853168864        5.4978854664        7.7984818005
  H         5.2061557747        9.2438496285        3.8540047105
  H         3.8759222801        8.3629924950        3.0345130080
  C         4.4158593713        9.9640533753        1.9639278038
  H        12.5851673308       -1.7558251656       -2.3671213047
  C        13.1552317372       -0.2917185998       -3.5119867702
  H         5.6500706066        8.5996261041       22.1980643467
  H         5.5810585057        9.9582658208       21.2206584097
  C         7.6387221236        9.4661109419       21.7880485428
  H        19.2387362199        4.8095151051        8.4319474195
  H        18.5000179948        6.4218166664        8.4106595669
  C        19.5341930076        5.9083885548        6.5907402433
  H         3.5302527591       10.4877995562        2.4594278034
  H         5.1870521371       10.7125645399        1.8862635088
  C         3.9204588307        9.5985786715        0.4721004813
  S        13.5515392410        1.2746913346       -4.0747747750
  C        13.3930018013       -1.3301564621       -4.5457784936
  H         7.6098262780       10.5672070978       21.9098014454
  H         8.3166564637        9.2052220037       20.9417656006
  H         8.0158467210        8.9984209281       22.6917008935
  H        19.7296086654        5.0805014459        5.8730341394
  H        19.0379023303        6.6817715981        6.0082039622
  H        20.3931879462        6.3435521777        6.8448464318
  H         4.1062888052       10.4931235732       -0.1956716686
  H         4.3280900557        8.7128969639        0.0137754180
  H         2.8612174229        9.5140490293        0.4634918313
  C        13.9073190365        0.5976865887       -5.6096631416
  N        13.8861001102       -0.7313422098       -5.6487850642
  O        13.0335957743       -2.5188952100       -4.3982333418
  S        14.8625595549        1.4575799806       -6.8665528182
  C        14.0848909349       -1.3919991438       -6.9168130275
  H        14.2263381535       -2.5033399899       -6.7353117128
  H        14.9533851951       -1.0610613704       -7.3894793851
  C        12.9303973955       -1.2145582543       -7.7478202708
  H        12.9759708132       -2.0376102560       -8.4900736526
  H        12.9627185835       -0.2662846171       -8.3731898362
  H        11.9963586844       -1.2402159443       -7.1132792060
