352
 i =        0, time =        0.000, E =       359.8488125017
  H        11.9720000000        6.9110000000       32.2670000000
  C        11.7220000000        5.9600000000       32.3940000000
  H        12.5380000000        5.4130000000       32.2870000000
  C        10.7280000000        5.5730000000       31.3600000000
  C        11.1690000000        5.7690000000       33.8020000000
  C        11.2620000000        5.6620000000       29.9260000000
  H        10.4340000000        4.6430000000       31.5320000000
  H         9.9360000000        6.1600000000       31.4410000000
  H        11.8470000000        6.0330000000       34.4590000000
  H        10.3690000000        6.3240000000       33.9160000000
  H        10.9340000000        4.8270000000       33.9350000000
  C        10.2370000000        5.2330000000       28.8930000000
  H        12.0640000000        5.0860000000       29.8410000000
  H        11.5370000000        6.5940000000       29.7400000000
  C        10.7300000000        5.2700000000       27.4510000000
  H         9.9460000000        4.3100000000       29.1030000000
  H         9.4460000000        5.8210000000       28.9700000000
  C         9.7100000000        4.7150000000       26.4680000000
  H        11.5660000000        4.7450000000       27.3830000000
  H        10.9380000000        6.2060000000       27.2040000000
  C         8.4740000000        5.5810000000       26.2570000000
  H        10.1560000000        4.5830000000       25.5950000000
  H         9.4190000000        3.8250000000       26.7880000000
  C         7.3240000000        4.8820000000       25.5040000000
  H         8.1410000000        5.8770000000       27.1390000000
  H         8.7380000000        6.3890000000       25.7510000000
  C         6.9370000000        3.5830000000       26.1770000000
  C         7.7850000000        4.3460000000       24.1430000000
  C         6.1180000000        5.8360000000       25.3650000000
  C         7.1550000000        2.5010000000       25.3570000000
  C         6.4570000000        3.2240000000       27.4430000000
  C         7.6820000000        2.9360000000       24.0730000000
  C         8.2430000000        5.0750000000       23.0720000000
  H         6.4120000000        6.6470000000       24.8790000000
  H         5.8350000000        6.1190000000       26.2710000000
  C         4.9230000000        5.2600000000       24.6510000000
  S         6.7780000000        1.0180000000       26.1220000000
  C         6.3190000000        1.8530000000       27.5890000000
  H         6.2500000000        3.8500000000       28.1280000000
  C         8.0490000000        2.2360000000       22.9220000000
  H         8.3180000000        6.0210000000       23.1130000000
  C         8.5960000000        4.3700000000       21.9180000000
  H         5.1830000000        5.0580000000       23.7180000000
  H         4.6810000000        4.4050000000       25.0840000000
  C         3.6810000000        6.1630000000       24.6270000000
  C         5.9120000000        1.1740000000       28.8010000000
  C         8.5060000000        2.9630000000       21.8390000000
  H         7.9870000000        1.2890000000       22.8860000000
  C         9.0680000000        4.8200000000       20.6240000000
  H         3.0260000000        5.7830000000       23.9880000000
  H         3.9460000000        7.0550000000       24.2870000000
  C         2.9960000000        6.3370000000       25.9870000000
  C         5.9610000000       -0.2450000000       28.9630000000
  C         5.4970000000        1.8810000000       29.9210000000
  C         8.9760000000        2.4450000000       20.4700000000
  C         9.2730000000        3.7690000000       19.7770000000
  S         9.3480000000        6.3390000000       19.8970000000
  H         2.2980000000        7.0340000000       25.9030000000
  H         3.6640000000        6.6620000000       26.6420000000
  C         2.3610000000        5.0800000000       26.5290000000
  N         6.3040000000       -1.1450000000       28.0120000000
  C         5.6530000000       -0.8550000000       30.2270000000
  C         5.1990000000        1.2820000000       31.1560000000
  H         5.4120000000        2.8250000000       29.8480000000
  C         7.8820000000        1.6470000000       19.7530000000
  C        10.2370000000        1.5700000000       20.6190000000
  C         9.6670000000        4.1800000000       18.4890000000
  C         9.7460000000        5.5620000000       18.3790000000
  H         1.7250000000        4.7320000000       25.8550000000
  H         3.0670000000        4.3970000000       26.6510000000
  C         1.6120000000        5.2510000000       27.8640000000
  S         6.2230000000       -2.5960000000       28.7040000000
  N         5.7740000000       -2.2060000000       30.2030000000
  C         5.2810000000       -0.0770000000       31.3660000000
  H         4.9260000000        1.8390000000       31.8770000000
  H         7.6510000000        0.8660000000       20.3170000000
  H         8.2580000000        1.3000000000       18.9060000000
  C         6.6010000000        2.3970000000       19.4320000000
  H        10.5100000000        1.2660000000       19.7150000000
  H         9.9940000000        0.7650000000       21.1400000000
  C        11.4270000000        2.2180000000       21.2780000000
  H         9.8570000000        3.5810000000       17.7770000000
  C        10.0550000000        6.3320000000       17.1900000000
  H         1.0730000000        4.4380000000       28.0300000000
  H         0.9840000000        6.0130000000       27.7760000000
  C         2.4750000000        5.4860000000       29.0270000000
  C         5.0350000000       -0.7620000000       32.6160000000
  H         6.7880000000        3.0880000000       18.7500000000
  H         6.2770000000        2.8550000000       20.2490000000
  C         5.5220000000        1.4620000000       18.9190000000
  H        11.1520000000        2.5440000000       22.1700000000
  H        11.6920000000        3.0070000000       20.7430000000
  C        12.6200000000        1.3330000000       21.4420000000
  C        10.0360000000        7.7520000000       17.1630000000
  C        10.3620000000        5.7230000000       15.9740000000
  H         3.0930000000        4.7190000000       29.1230000000
  H         3.0220000000        6.2940000000       28.8590000000
  C         1.7110000000        5.6740000000       30.3450000000
  H         5.1090000000       -1.7080000000       32.5790000000
  C         4.7140000000       -0.2580000000       33.8240000000
  H         5.3280000000        0.7920000000       19.6210000000
  H         5.8760000000        0.9750000000       18.1350000000
  C         4.2330000000        2.1260000000       18.5280000000
  H        12.3740000000        0.4930000000       21.9040000000
  H        13.0170000000        1.1100000000       20.5640000000
  C        13.6740000000        2.2210000000       22.3560000000
  N         9.7350000000        8.5710000000       18.2090000000
  C        10.3230000000        8.4920000000       15.9680000000
  C        10.6440000000        6.4490000000       14.7960000000
  H        10.3840000000        4.7750000000       15.9370000000
  H         2.3510000000        5.8250000000       31.0740000000
  H         1.1140000000        6.4470000000       30.2710000000
  H         1.1850000000        4.8700000000       30.5370000000
  S         4.4410000000        1.3900000000       34.3370000000
  C         4.5810000000       -1.1670000000       34.9830000000
  H         4.0930000000        2.9190000000       19.1010000000
  H         4.3070000000        2.4410000000       17.5920000000
  C         3.0020000000        1.1970000000       18.6460000000
  H        13.2610000000        2.3650000000       23.2470000000
  H        13.7720000000        3.1110000000       21.9330000000
  C        14.9930000000        1.6790000000       22.5610000000
  S         9.8200000000       10.0870000000       17.6650000000
  N        10.2380000000        9.8380000000       16.1210000000
  C        10.6500000000        7.8280000000       14.7420000000
  H        10.8370000000        5.9650000000       14.0020000000
  C         4.1230000000        0.9060000000       35.9930000000
  N         4.2490000000       -0.4510000000       36.1300000000
  O         4.7320000000       -2.3610000000       34.9720000000
  H         2.1880000000        1.7090000000       18.4080000000
  H         2.9090000000        0.9030000000       19.5850000000
  C         3.0930000000       -0.0190000000       17.7550000000
  H        14.9070000000        0.8030000000       23.0160000000
  H        15.4070000000        1.5150000000       21.6760000000
  C        15.9260000000        2.5610000000       23.3800000000
  C        10.9050000000        8.6400000000       13.5800000000
  S         3.7510000000        1.9870000000       37.1590000000
  C         4.1140000000       -1.1460000000       37.4230000000
  H         3.0210000000        0.2530000000       16.8050000000
  H         3.9660000000       -0.4660000000       17.8880000000
  C         1.9150000000       -1.0170000000       18.1220000000
  H        15.4810000000        2.8000000000       24.2320000000
  H        16.0970000000        3.3990000000       22.8830000000
  C        17.2380000000        1.8940000000       23.6790000000
  H        10.7310000000        9.5670000000       13.6960000000
  C        11.3510000000        8.3020000000       12.3510000000
  H         3.4710000000       -0.6590000000       37.9970000000
  H         3.7600000000       -2.0590000000       37.2720000000
  C         5.4520000000       -1.2330000000       38.1230000000
  H         1.0340000000       -0.5990000000       17.9460000000
  H         1.9620000000       -1.2840000000       19.0720000000
  C         2.1450000000       -2.2510000000       17.1790000000
  H        17.6800000000        2.3590000000       24.4340000000
  H        17.0780000000        0.9550000000       23.9490000000
  C        18.1450000000        1.9260000000       22.4630000000
  S        11.8970000000        6.7810000000       11.7050000000
  C        11.4630000000        9.3570000000       11.3130000000
  H         5.3380000000       -1.6770000000       38.9880000000
  H         6.0770000000       -1.7450000000       37.5710000000
  H         5.8050000000       -0.3290000000       38.2630000000
  H         1.4490000000       -2.9220000000       17.3450000000
  H         3.0250000000       -2.6420000000       17.3610000000
  H         2.1020000000       -1.9620000000       16.2420000000
  H        18.9940000000        1.4860000000       22.6810000000
  H        18.3140000000        2.8550000000       22.2060000000
  H        17.7130000000        1.4530000000       21.7220000000
  C        12.3120000000        7.4890000000       10.1540000000
  N        12.0010000000        8.8210000000       10.1380000000
  O        11.1490000000       10.5100000000       11.4280000000
  S        12.9590000000        6.6120000000        8.9420000000
  C        12.1860000000        9.6770000000        8.9620000000
  H        12.4210000000       10.5940000000        9.2540000000
  H        12.9320000000        9.3300000000        8.4120000000
  C        10.9090000000        9.7250000000        8.1200000000
  H        10.1530000000        9.9760000000        8.6890000000
  H        11.0160000000       10.3840000000        7.4040000000
  H        10.7440000000        8.8410000000        7.7290000000
  H         4.8150000000        1.6110000000       12.6010000000
  C         4.2680000000        2.4190000000       12.7690000000
  H         4.8860000000        3.1860000000       12.8640000000
  C         3.4050000000        2.6550000000       11.6050000000
  C         3.5040000000        2.2310000000       14.0870000000
  C         4.1540000000        2.8250000000       10.2710000000
  H         2.8660000000        3.4670000000       11.7710000000
  H         2.7770000000        1.8920000000       11.5180000000
  H         4.1440000000        2.0810000000       14.8150000000
  H         2.9070000000        1.4580000000       14.0120000000
  H         2.9780000000        3.0360000000       14.2780000000
  C         4.7890000000        1.5680000000        9.7280000000
  H         3.5180000000        3.1730000000        9.5960000000
  H         4.8600000000        3.5080000000       10.3930000000
  C         5.4740000000        1.7420000000        8.3680000000
  H         4.0910000000        0.8710000000        9.6450000000
  H         5.4570000000        1.2430000000       10.3830000000
  C         6.7160000000        2.6450000000        8.3920000000
  H         4.8190000000        2.1220000000        7.7290000000
  H         5.7390000000        0.8510000000        8.0290000000
  C         7.9110000000        2.0700000000        9.1060000000
  H         6.9760000000        2.8470000000        7.4600000000
  H         6.4740000000        3.5000000000        8.8250000000
  C         9.1170000000        3.0230000000        9.2460000000
  H         8.2050000000        1.2590000000        8.6200000000
  H         7.6280000000        1.7870000000       10.0120000000
  C         8.7300000000        4.3220000000        9.9180000000
  C         9.5780000000        3.5590000000        7.8840000000
  C        10.2670000000        2.3240000000        9.9980000000
  C         8.9480000000        5.4050000000        9.0980000000
  C         8.2500000000        4.6810000000       11.1840000000
  C         9.4750000000        4.9690000000        7.8140000000
  C        10.0360000000        2.8300000000        6.8130000000
  H         9.9340000000        2.0280000000       10.8800000000
  H        10.5310000000        1.5160000000        9.4920000000
  C        11.5030000000        3.1910000000       10.2100000000
  S         8.5710000000        6.8870000000        9.8630000000
  C         8.1120000000        6.0520000000       11.3310000000
  H         8.0430000000        4.0550000000       11.8690000000
  C         9.8420000000        5.6690000000        6.6630000000
  H        10.1110000000        1.8850000000        6.8550000000
  C        10.3890000000        3.5350000000        5.6590000000
  H        11.2120000000        4.0810000000       10.5290000000
  H        11.9490000000        3.3220000000        9.3360000000
  C        12.5220000000        2.6360000000       11.1930000000
  C         7.7050000000        6.7320000000       12.5430000000
  C        10.2990000000        4.9420000000        5.5810000000
  H         9.7800000000        6.6170000000        6.6270000000
  C        10.8610000000        3.0850000000        4.3650000000
  H        13.3590000000        3.1600000000       11.1240000000
  H        12.7310000000        1.7000000000       10.9450000000
  C        12.0300000000        2.6720000000       12.6340000000
  C         7.7540000000        8.1500000000       12.7050000000
  C         7.2900000000        6.0240000000       13.6620000000
  C        10.7690000000        5.4600000000        4.2120000000
  C        11.0660000000        4.1360000000        3.5180000000
  S        11.1410000000        1.5660000000        3.6390000000
  H        11.7390000000        3.5950000000       12.8440000000
  H        11.2390000000        2.0840000000       12.7110000000
  C        13.0550000000        2.2430000000       13.6670000000
  N         8.0970000000        9.0500000000       11.7530000000
  C         7.4460000000        8.7600000000       13.9680000000
  C         6.9910000000        6.6230000000       14.8970000000
  H         7.2050000000        5.0800000000       13.5890000000
  C        12.0300000000        6.3350000000        4.3600000000
  C         9.6750000000        6.2580000000        3.4940000000
  C        11.4590000000        3.7250000000        2.2310000000
  C        11.5390000000        2.3430000000        2.1200000000
  H        13.8570000000        2.8190000000       13.5830000000
  H        13.3300000000        1.3110000000       13.4820000000
  C        12.5210000000        2.3320000000       15.1010000000
  S         8.0160000000       10.5020000000       12.4450000000
  N         7.5670000000       10.1110000000       13.9440000000
  C         7.0740000000        7.9830000000       15.1080000000
  H         6.7190000000        6.0660000000       15.6180000000
  H        11.7870000000        7.1400000000        4.8810000000
  H        12.3030000000        6.6390000000        3.4570000000
  C        13.2200000000        5.6870000000        5.0200000000
  H         9.4440000000        7.0390000000        4.0580000000
  H        10.0510000000        6.6060000000        2.6470000000
  C         8.3940000000        5.5080000000        3.1740000000
  H        11.6500000000        4.3240000000        1.5190000000
  C        11.8480000000        1.5740000000        0.9310000000
  H        12.2270000000        3.2620000000       15.2730000000
  H        11.7290000000        1.7450000000       15.1820000000
  C        13.5150000000        1.9450000000       16.1350000000
  C         6.8280000000        8.6670000000       16.3570000000
  H        12.9450000000        5.3610000000        5.9120000000
  H        13.4850000000        4.8980000000        4.4840000000
  C        14.4130000000        6.5720000000        5.1830000000
  H         8.0700000000        5.0500000000        3.9900000000
  H         8.5810000000        4.8170000000        2.4910000000
  C         7.3150000000        6.4430000000        2.6610000000
  C        11.8290000000        0.1530000000        0.9040000000
  C        12.1550000000        2.1820000000       -0.2850000000
  H        14.3310000000        2.4920000000       16.0280000000
  H        13.7640000000        0.9940000000       16.0080000000
  C        12.9620000000        2.1360000000       17.5430000000
  H         6.9020000000        9.6130000000       16.3210000000
  C         6.5070000000        8.1630000000       17.5650000000
  H        14.1670000000        7.4120000000        5.6450000000
  H        14.8100000000        6.7950000000        4.3050000000
  C        15.4670000000        5.6840000000        6.0970000000
  H         7.1210000000        7.1130000000        3.3620000000
  H         7.6690000000        6.9300000000        1.8760000000
  C         6.0260000000        5.7790000000        2.2700000000
  N        11.5280000000       -0.6660000000        1.9500000000
  C        12.1160000000       -0.5870000000       -0.2910000000
  C        12.4370000000        1.4560000000       -1.4630000000
  H        12.1770000000        3.1300000000       -0.3220000000
  H        13.6400000000        1.8720000000       18.2000000000
  H        12.1620000000        1.5810000000       17.6570000000
  H        12.7270000000        3.0780000000       17.6770000000
  S         6.2340000000        6.5150000000       18.0790000000
  C         6.3740000000        9.0720000000       18.7240000000
  H        15.0540000000        5.5400000000        6.9880000000
  H        15.5650000000        4.7940000000        5.6740000000
  C        16.7860000000        6.2260000000        6.3020000000
  H         5.8860000000        4.9870000000        2.8420000000
  H         6.1000000000        5.4640000000        1.3330000000
  C         4.7950000000        6.7080000000        2.3870000000
  S        11.6130000000       -2.1820000000        1.4060000000
  N        12.0300000000       -1.9330000000       -0.1380000000
  C        12.4430000000        0.0770000000       -1.5170000000
  H        12.6300000000        1.9400000000       -2.2570000000
  C         5.9160000000        6.9990000000       19.7340000000
  N         6.0420000000        8.3560000000       19.8710000000
  O         6.5250000000       10.2660000000       18.7130000000
  H        17.2000000000        6.3910000000        5.4170000000
  H        16.7000000000        7.1020000000        6.7570000000
  C        17.7190000000        5.3440000000        7.1210000000
  H         3.9810000000        6.1960000000        2.1490000000
  H         4.7020000000        7.0020000000        3.3270000000
  C         4.8860000000        7.9240000000        1.4960000000
  C        12.6970000000       -0.7350000000       -2.6790000000
  S         5.5440000000        5.9180000000       20.9000000000
  C         5.9070000000        9.0510000000       21.1640000000
  H        17.2740000000        5.1050000000        7.9730000000
  H        17.8900000000        4.5060000000        6.6240000000
  C        19.0310000000        6.0110000000        7.4200000000
  H         4.8140000000        7.6520000000        0.5460000000
  H         5.7590000000        8.3720000000        1.6290000000
  C         3.7080000000        8.9220000000        1.8630000000
  H        12.5240000000       -1.6620000000       -2.5620000000
  C        13.1440000000       -0.3970000000       -3.9070000000
  H         5.2640000000        8.5640000000       21.7380000000
  H         5.5530000000        9.9640000000       21.0130000000
  C         7.2450000000        9.1380000000       21.8640000000
  H        19.4730000000        5.5460000000        8.1750000000
  H        18.8710000000        6.9500000000        7.6900000000
  C        19.9380000000        5.9790000000        6.2040000000
  H         2.8270000000        8.5040000000        1.6880000000
  H         3.7550000000        9.1890000000        2.8130000000
  C         3.9380000000       10.1570000000        0.9200000000
  S        13.6900000000        1.1240000000       -4.5530000000
  C        13.2560000000       -1.4510000000       -4.9460000000
  H         7.1310000000        9.5830000000       22.7300000000
  H         7.8700000000        9.6510000000       21.3120000000
  H         7.5980000000        8.2340000000       22.0050000000
  H        20.7870000000        6.4190000000        6.4220000000
  H        20.1060000000        5.0500000000        5.9470000000
  H        19.5060000000        6.4520000000        5.4630000000
  H         3.2420000000       10.8270000000        1.0860000000
  H         4.8180000000       10.5470000000        1.1020000000
  H         3.8950000000        9.8670000000       -0.0160000000
  C        14.1050000000        0.4160000000       -6.1050000000
  N        13.7940000000       -0.9150000000       -6.1210000000
  O        12.9420000000       -2.6050000000       -4.8310000000
  S        14.7520000000        1.2940000000       -7.3170000000
  C        13.9790000000       -1.7720000000       -7.2960000000
  H        14.2140000000       -2.6890000000       -7.0040000000
  H        14.7250000000       -1.4250000000       -7.8460000000
  C        12.7020000000       -1.8200000000       -8.1390000000
  H        11.9460000000       -2.0710000000       -7.5700000000
  H        12.8090000000       -2.4790000000       -8.8550000000
  H        12.5370000000       -0.9360000000       -8.5290000000
