352
 i =    43600, time =    21800.000, E =        99.9565309436
  H         9.5293779218        5.3451247053       31.5474546117
  C        10.3323093372        5.9172870192       31.8807183534
  H         9.8015593115        6.7950892143       32.1957727496
  C        11.2945621554        6.5298913797       30.8602436769
  C        11.0152176813        5.1870661449       33.1131730858
  C        11.4950258499        5.7189184568       29.5468998974
  H        10.9248113439        7.5352316250       30.6300358622
  H        12.3002415696        6.7421629485       31.2469106263
  H        11.1558031091        4.1289644833       32.8937583348
  H        11.9806962507        5.5787381130       33.4240717730
  H        10.5635882371        5.0992492680       34.0981928451
  C        10.2850941478        5.7241614608       28.6031137455
  H        11.9934994006        4.7122395110       29.7222887220
  H        12.2314027270        6.3883237880       29.0918877774
  C        10.6288394410        5.3827864310       27.1625274508
  H         9.5027289256        5.0974538043       28.8964967660
  H         9.8534482580        6.7936008230       28.5330039557
  C         9.6815552310        4.7265541712       26.2360648792
  H        11.4976203077        4.7074896779       27.1358362055
  H        11.0387020737        6.2671549055       26.6313786364
  C         8.5106405335        5.7394393875       26.0056241683
  H        10.2423502125        4.5966886198       25.3537208196
  H         9.3937748733        3.7918544657       26.6595617799
  C         7.3122154201        5.0802027432       25.2889624645
  H         8.1896548551        6.1521237705       26.9519921447
  H         8.8871495456        6.4893930653       25.3458614758
  C         6.9735214620        3.7989634207       26.0554660783
  C         7.6863425780        4.3648708060       24.0797959184
  C         6.1150608868        5.9633790431       25.0661121988
  C         7.1260507277        2.6395607582       25.2795526528
  C         6.5692027386        3.4103959792       27.3443499672
  C         7.6348051924        3.0040492559       24.0459447451
  C         8.1333244277        4.9102245536       22.8560598754
  H         6.3254808274        6.7526081093       24.3786693430
  H         6.0054881150        6.3588105870       26.0299451367
  C         4.7491919326        5.3171168921       24.7895090393
  S         6.6248278950        1.1705113349       26.0893864214
  C         6.3160566752        2.1203704056       27.4688485290
  H         6.3810587481        4.1641783377       28.0530258588
  C         7.8924659718        2.3576767677       22.8745418431
  H         8.2505420597        5.9600447490       22.8347911611
  C         8.4506174419        4.2473609856       21.7483949550
  H         4.7387707731        4.7159799483       23.9543581130
  H         4.5718753289        4.6642980983       25.6638091915
  C         3.5236498950        6.3455141513       24.6692009262
  C         5.8456575147        1.4650934899       28.6975126660
  C         8.3947744712        2.9103154497       21.6667843997
  H         7.8907385326        1.2893307951       23.0331697777
  C         8.8723795586        4.6335063134       20.5313251658
  H         2.8578691554        6.0847933514       23.8155246642
  H         3.9362068918        7.3118666756       24.3307086508
  C         2.8743092063        6.5515223394       26.1206477488
  C         5.8858352544        0.0912488294       28.9644754269
  C         5.3125818226        2.3811694538       29.8584290202
  C         8.8816689292        2.1894615714       20.4333388007
  C         9.0982346928        3.5688444396       19.7504548094
  S         9.1273497719        6.1493577471       19.7623368688
  H         2.2833459121        7.4498436857       26.0544381482
  H         3.6894376042        6.7889670271       26.7990846730
  C         2.0961341203        5.3829876976       26.6360147324
  N         6.4227906006       -0.9067669176       28.1166215620
  C         5.5105897849       -0.4182839157       30.2548721100
  C         4.9926533955        1.7768590113       31.0975926500
  H         5.1753315928        3.4550146235       29.8592179562
  C         7.6344848469        1.4191557525       19.7669630420
  C        10.1243217970        1.3648123113       20.5046918568
  C         9.6161560081        3.8633917427       18.4990169242
  C         9.4949708323        5.2196257550       18.3151950711
  H         1.3070436970        5.0137055639       26.0164922545
  H         2.6673078393        4.4775935064       26.7302773357
  C         1.3944515769        5.6846541279       28.0075151141
  S         6.2813924211       -2.3133114249       28.9198498211
  N         5.7278611379       -1.7880625909       30.3573884104
  C         5.1143575634        0.3216620313       31.3887070607
  H         4.5927935391        2.3986244607       31.8361318882
  H         7.2225718751        0.6902322552       20.4699551448
  H         8.1013990239        0.9048714980       18.9447427022
  C         6.4974126038        2.2685240118       19.2107110024
  H        10.3622853722        0.7651158805       19.5697455206
  H        10.0089289499        0.6297573295       21.3024920829
  C        11.3150689150        2.2847897771       20.8322398582
  H         9.9406978265        3.0107971986       17.9298489282
  C         9.9641776564        5.9555980950       17.0519982066
  H         0.7893416042        4.8810645709       28.2830121054
  H         0.7270848453        6.4807941483       27.8410234812
  C         2.4101503547        5.8136860849       29.1429686362
  C         4.9904172445       -0.2961709418       32.6275753779
  H         6.8611631780        2.9913082111       18.4115321694
  H         6.0502581514        2.9270959200       20.0724544319
  C         5.3488787475        1.4823520836       18.5981618931
  H        11.1951399155        3.0067089752       21.6044863963
  H        11.6081930711        2.7720603373       19.8820498487
  C        12.5558695560        1.4022059193       21.2409694558
  C        10.0018427581        7.3756760378       16.9599923412
  C        10.1763961492        5.2216135169       15.8028691768
  H         3.0801941402        5.0108103102       29.1117460013
  H         2.9856352464        6.7373971947       28.8868162513
  C         1.7221197771        5.7532260415       30.4193429956
  H         4.9735657217       -1.3329608741       32.6818746291
  C         4.7945071092        0.2403538439       33.8808800944
  H         4.7265893278        1.1222987796       19.3767671021
  H         5.7416987815        0.5904560138       18.0416673156
  C         4.3569476581        2.4803866486       17.9923005091
  H        12.2632868580        0.7994174608       22.0492274006
  H        12.6749046032        0.6826976092       20.4977799950
  C        13.7540322164        2.1795011972       21.5498482632
  N         9.5952114673        8.2752128974       17.9594128147
  C        10.2885311227        8.0620876123       15.7636367724
  C        10.4279516174        5.9743796423       14.6308431737
  H        10.1881322238        4.1472051892       15.7189636932
  H         2.3995535399        5.3262629357       31.1221913032
  H         1.2687273833        6.6109286877       30.7759501809
  H         0.8746173597        5.1251942717       30.3623871615
  S         4.5940332820        1.8751761201       34.3152759831
  C         4.7879972252       -0.6737843021       35.0332686585
  H         4.4430702234        3.4427986567       18.3971430981
  H         4.7297324656        2.6962366412       16.9843022323
  C         2.8717552336        1.9718829807       18.1136952460
  H        13.5233663090        3.0594463872       22.1286995169
  H        14.2124646182        2.5705788534       20.6716164573
  C        14.6613712309        1.4740557073       22.5480366617
  S         9.7881434702        9.7216603412       17.3856603153
  N        10.2403611977        9.4359175776       15.8710093468
  C        10.4323495824        7.4531293100       14.5103550202
  H        10.5723055235        5.4305536643       13.7000546092
  C         4.3281529063        1.4007641425       35.9215488467
  N         4.4203462104        0.0731932957       36.1624780627
  O         4.8908856858       -1.9187175334       34.9718635952
  H         2.0860245190        2.7343033143       17.7465350863
  H         2.4827254402        1.8416049233       19.1221128611
  C         2.8434812947        0.6054125238       17.3650752107
  H        14.0831657548        0.9851234132       23.3308568981
  H        15.3234151370        0.7562605226       22.0506031387
  C        15.4821467724        2.5280034770       23.3198674662
  C        10.6448630269        8.2370531891       13.3333648648
  S         3.8385798519        2.4921398633       37.2295358974
  C         4.2733574928       -0.5724068719       37.3931618713
  H         2.0275021099        0.5772358993       16.6168857102
  H         3.7538371147        0.3691397073       16.7384441499
  C         2.5807866869       -0.5958382515       18.2298406319
  H        14.7945731942        3.0073428957       24.0538230139
  H        15.7793873278        3.3201907070       22.6124431133
  C        16.7954587790        2.1317494957       23.9063971529
  H        10.2912076327        9.2683514209       13.3286401790
  C        11.2591522827        7.9683581859       12.1204726273
  H         3.4539905084       -0.1244349575       38.0110625285
  H         3.7709869791       -1.4905967260       37.1905399995
  C         5.6932179009       -0.9063453939       38.1073904487
  H         1.6973702617       -0.3069626231       18.6922543790
  H         3.4197835705       -0.6542392596       18.9616021457
  C         2.3543189313       -1.7755716252       17.3527647743
  H        17.0763107279        2.7456272456       24.7713429442
  H        16.8372647295        1.0446452906       24.2361256930
  C        17.9161987353        2.2304522481       22.8367514948
  S        12.0582190785        6.4946697949       11.5826367822
  C        11.1502892531        9.0192611890       11.0564541812
  H         5.6541053065       -1.7267480979       38.8091944195
  H         6.4374270350       -1.3098854421       37.4010347260
  H         6.0501942021       -0.0700344038       38.6697586661
  H         3.1584671442       -1.8377999254       16.5557332911
  H         1.3849864406       -1.7669620048       16.8707860454
  H         2.4105117594       -2.6707524506       17.8757263373
  H        18.8819423210        2.0827153497       23.4078439301
  H        17.9754005835        3.2363104611       22.2976353126
  H        17.8506425729        1.4444682260       22.1183274349
  C        12.2756728172        7.2484290094       10.0232739854
  N        11.8248979741        8.5524112183        9.9694118542
  O        10.6325723128       10.1206804893       11.2036566673
  S        12.8837368007        6.4570805408        8.5869530636
  C        11.9569948445        9.3179153641        8.7480525010
  H        12.0348560008       10.4118123628        9.0649159959
  H        12.8819173995        9.2672412440        8.1976853117
  C        10.7932978703        9.1508249116        7.8145399605
  H        10.0366279701        8.6654322138        8.3859036033
  H        10.4864170963       10.1410464489        7.4213726126
  H        11.1285491649        8.4227729749        7.0278556531
  H         5.5139509605        1.4376906826       12.7517096671
  C         4.7414474136        2.1863544594       12.8042954723
  H         5.4364707030        2.9688379840       12.6749901006
  C         3.6608868187        2.0917232247       11.6936921263
  C         4.1247496961        2.3877630934       14.1691137211
  C         4.1437694541        2.3987734826       10.2832668156
  H         2.9019596467        2.7699711220       11.9998161461
  H         3.1957398066        1.1097079354       11.5773251165
  H         3.5805714017        1.5860232141       14.6924021146
  H         3.4986048589        3.2926694277       14.1762141633
  H         4.9202687521        2.6752178207       14.8627679888
  C         4.8234727185        1.1548856315        9.7303484904
  H         3.3351826781        2.7487496374        9.7083036480
  H         4.7926498128        3.2762100395       10.4683902338
  C         5.4048307400        1.4880844569        8.4190237116
  H         4.1383107780        0.2909743567        9.5076401077
  H         5.6000617350        0.8318963163       10.4063108048
  C         6.6310171042        2.3575377116        8.4801780619
  H         4.6386349352        2.1038713190        7.8909305245
  H         5.6622334665        0.6461674083        7.8126659420
  C         7.8495265112        1.8006902661        9.1110370496
  H         6.8794476279        2.7380614508        7.4527393309
  H         6.2915835152        3.2183282069        9.0718450126
  C         8.9710100471        2.8386664016        9.3304988788
  H         8.3298797741        1.2298787673        8.3725193397
  H         7.6248203914        1.2497245832        9.9912147983
  C         8.4836696072        4.1480459155        9.9530441798
  C         9.4070331938        3.5302736854        8.0300696145
  C        10.1028461955        2.2176586808       10.2508013117
  C         8.7139878926        5.2365662946        9.1947320083
  C         8.0579362878        4.4660966141       11.2726948511
  C         9.2713870179        4.8773124181        7.9824452482
  C         9.8834702275        2.9932745934        6.8572472155
  H         9.5434718826        2.1983049989       11.1624040770
  H        10.3826849048        1.1977743124        9.9665039802
  C        11.4090372915        3.1125949462       10.4365214960
  S         8.2660367486        6.7091540094        9.9577407617
  C         7.8511941656        5.8133173766       11.3767509854
  H         7.8163661340        3.6542550787       12.0088761104
  C         9.6121746731        5.5097614356        6.8293500325
  H        10.0191129943        1.9172087470        6.8768501157
  C        10.1610874175        3.5678742122        5.6688324913
  H        11.0956417928        4.1025525855       10.6461062381
  H        11.9084995051        3.0652932297        9.4430158410
  C        12.4926065893        2.6378012283       11.4610936547
  C         7.3642312668        6.4357641988       12.6153266450
  C        10.0764786648        4.9345535367        5.6382933707
  H         9.5419137386        6.5376737459        6.8214516840
  C        10.6163661668        3.2128950086        4.4276461360
  H        13.2197990392        3.4191417112       11.5908819644
  H        13.0137119478        1.7571705611       11.0545264978
  C        11.8017294387        2.3487965122       12.7540256901
  C         7.3610041410        7.8371094852       12.9095899032
  C         7.0663748295        5.5294155263       13.8080924279
  C        10.4888790122        5.6981232138        4.3855435433
  C        10.8283373893        4.3581915963        3.6229922667
  S        10.9832373621        1.7635346411        3.6573129958
  H        11.3563828614        3.3251395664       13.0416176979
  H        11.0803807325        1.5081409002       12.6669691181
  C        12.7710236653        1.9131223674       13.8448643439
  N         7.6549706564        8.8252321016       12.0173142678
  C         7.1826346095        8.3083002800       14.2213734865
  C         6.8685522769        6.0677184043       15.0920230060
  H         6.9084911865        4.4022052442       13.6850720588
  C        11.7812230343        6.5953738655        4.5784403789
  C         9.3013424830        6.4196893526        3.7286659797
  C        11.2138458334        3.9650709966        2.2977774298
  C        11.3714523903        2.6122213107        2.1798635384
  H        13.2215646218        2.7551716411       14.2867212708
  H        13.6117079039        1.4284388942       13.3883414107
  C        12.1107536108        1.0589850565       14.8869386542
  S         7.5231301305       10.2854631494       12.7362137101
  N         7.3092477206        9.7228730925       14.2673912038
  C         6.9359583500        7.4730238994       15.4079508338
  H         6.5645711426        5.3626242734       15.8393612437
  H        11.7375495830        7.2088099273        5.5054628958
  H        11.8655188493        7.1651768234        3.6917538296
  C        13.0402352230        5.7769293390        4.9156607298
  H         8.7964103446        6.9804195641        4.5225843508
  H         9.6449761849        7.0851419801        2.9755168662
  C         8.2111048825        5.3794976351        3.2584925544
  H        11.3464575349        4.6481379571        1.5486585946
  C        11.7308410257        1.8360259834        0.9318363267
  H        11.0602267731        1.4305008989       15.1824873632
  H        12.0304131666        0.0097432770       14.5380381859
  C        12.9845319528        0.8199678298       16.0752932125
  C         6.7201235551        8.0371107986       16.6676851865
  H        12.7700699723        5.1904171468        5.7943101902
  H        13.1953262389        5.0518452110        4.0890549973
  C        14.2758566913        6.6969235157        5.1739399448
  H         7.8774101977        4.6560829236        4.0165545537
  H         8.5446390638        4.7736302584        2.3650225461
  C         6.9982904379        6.0705298607        2.6743860453
  C        11.8348483609        0.4366452757        0.7892606060
  C        11.9739300212        2.6957587793       -0.2849769595
  H        14.1040911725        0.9109107957       15.7825612173
  H        12.6678690477       -0.2117478979       16.4684444989
  C        12.7723048749        1.8034228948       17.2139117837
  H         6.9076807148        9.1594211131       16.5730200999
  C         6.4551734423        7.5563436894       17.8933290046
  H        14.0849040567        7.3027507291        6.0581185055
  H        14.5041996651        7.3437076450        4.2859948144
  C        15.3418518044        5.6204844883        5.5722630900
  H         6.9310606030        7.0201805082        3.2108906191
  H         7.1915948860        6.2938356197        1.6098098259
  C         5.7755316658        5.1439388019        2.6432132965
  N        11.6943625970       -0.4713444255        1.8016125779
  C        12.1344144609       -0.2002561736       -0.4154983518
  C        12.1867309253        2.0469011810       -1.4960252314
  H        11.8949978947        3.7298884751       -0.1890946369
  H        11.7876639023        1.8910298403       17.4608306210
  H        13.2208441061        2.8008580265       16.9278193015
  H        13.2779791990        1.4211336710       18.0035751134
  S         5.8932191096        5.8402184133       18.3037745985
  C         6.4002114847        8.5483860810       18.9038016708
  H        14.8652694793        4.9997020431        6.3420224891
  H        15.6406497185        5.0488228389        4.7123786246
  C        16.6614789931        6.3038252162        6.0170566537
  H         5.4434032869        4.8972125955        3.6567462446
  H         6.0231303952        4.2903836480        2.0360691141
  C         4.7018951984        5.5842794303        1.6714608693
  S        11.9538966081       -2.0392998813        1.2094247862
  N        12.1158498144       -1.5862807082       -0.3507239475
  C        12.3436157465        0.4978544214       -1.6281222478
  H        12.1434746897        2.6393367865       -2.3784398145
  C         5.6733797545        6.5816550936       19.9014071597
  N         5.9491787987        7.9338598601       20.0228363438
  O         6.7064149913        9.7195008394       18.7425973195
  H        17.1594056393        6.6564072718        5.0917389163
  H        16.5150830082        7.0270188265        6.7914721513
  C        17.5265745879        5.2280237268        6.6672082756
  H         5.0263018562        5.6199218610        0.6390421174
  H         3.8402927704        4.9292016407        1.6707972946
  C         4.0714380279        6.9435162077        2.0575710780
  C        12.5491606654       -0.2432681929       -2.8386067099
  S         5.2639118006        5.6004722538       21.2369394222
  C         5.9520786870        8.5993627494       21.3158805444
  H        16.9455186740        4.5623600217        7.2787799911
  H        17.9307250263        4.6132457315        5.8869693840
  C        18.7558569098        5.7260799330        7.4615442023
  H         4.1231915234        6.9093260022        3.1435356324
  H         2.9911947845        7.0470144486        1.8791998533
  C         4.8303705197        8.2503894682        1.6288374915
  H        12.1213737279       -1.2601418976       -2.7979886283
  C        13.1871493673        0.1160912997       -3.9971026602
  H         5.2593575260        8.0758766491       22.0030598504
  H         5.6449424443        9.6755450549       21.1563628971
  C         7.3405668463        8.5436113786       22.0245465518
  H        19.0380279350        4.9684976306        8.2712038533
  H        18.4363260558        6.6023765869        8.0705067223
  C        19.8856066526        6.1344988839        6.4907866849
  H         5.2162371437        8.6385595864        2.4769664916
  H         5.6163943105        8.1291717466        0.8775156341
  C         3.8159688358        9.1822215983        0.9136876514
  S        13.8733754242        1.6280575405       -4.4334886782
  C        13.2370679110       -0.8804560353       -5.0176297835
  H         7.2273982762        8.4773321092       23.1379062648
  H         7.8836681206        9.4516123826       21.8386512172
  H         7.9284428030        7.6994238395       21.6671460199
  H        20.2576278756        5.2101823273        6.1023180845
  H        19.4980823531        6.8578526929        5.7056600754
  H        20.7430863683        6.5153888170        7.0372691100
  H         4.0596023870       10.1696924154        1.2171470250
  H         3.9592897394        9.1413280631       -0.1806460322
  H         2.8403774496        9.0407774901        1.2807948633
  C        14.1604985523        0.9669310285       -6.0732536559
  N        13.9916074357       -0.3902463986       -6.0688821846
  O        12.9810885888       -2.0886273856       -4.7819788390
  S        15.1230915636        1.6361338370       -7.4244425524
  C        14.2907600585       -1.2208658311       -7.2666003124
  H        14.4139571326       -2.2567458194       -6.9295819315
  H        15.1703623873       -1.0348306266       -7.8628930699
  C        13.0207230401       -1.2468429394       -8.1313913378
  H        12.1360185241       -1.0527206725       -7.5579427554
  H        12.8654558703       -2.2148216146       -8.5695743522
  H        13.2008730240       -0.5184533928       -8.9754874448
