352
 i =    26500, time =    13250.000, E =        98.0956635161
  H         9.6197320260        5.0072489656       31.2837100589
  C        10.2539367025        5.7559880295       31.7992599857
  H         9.5463684990        6.5204796101       32.0810471903
  C        11.1696817037        6.5190487221       30.7725335256
  C        11.0702640119        5.1327790572       32.9686349870
  C        11.7491615502        5.7727559568       29.5749667089
  H        10.5350020067        7.3923256246       30.6532640599
  H        12.0180297842        6.8920121577       31.4131069567
  H        10.6820719887        4.1996814684       33.2902891201
  H        12.1808533325        5.0574206866       32.6003568067
  H        11.1260473153        5.7100504743       33.9162512579
  C        10.5787968417        5.3448314970       28.6796094927
  H        12.2251576848        4.8308020226       29.8591886817
  H        12.6198105336        6.2031345773       29.0916574137
  C        10.7991708478        5.6969777945       27.2427836656
  H        10.4387036909        4.2418424779       28.7508319906
  H         9.6259368442        5.6971674625       29.1342403272
  C         9.7773009970        5.0049953115       26.3200846318
  H        11.8373712891        5.4296213767       27.0563646996
  H        10.7005617481        6.7930747285       27.2010845341
  C         8.5135264293        5.8848501638       26.0467212623
  H        10.2297641793        4.5294723844       25.4321128300
  H         9.3311596589        4.1435009188       26.9163753148
  C         7.3826771092        5.1674323294       25.3395703663
  H         8.0607564630        6.0988218403       27.0288359457
  H         8.7029805553        6.8206652059       25.5948922927
  C         7.0643848940        3.8190699289       25.9793803845
  C         7.8447973771        4.4884895723       24.0853460329
  C         6.1112298453        5.9724782351       25.1086474146
  C         7.2857618621        2.6825179808       25.1744313724
  C         6.5757448582        3.4143432029       27.2782846572
  C         7.8237165782        3.1580362772       23.9872745865
  C         8.1501966909        5.0959003923       22.8730608290
  H         6.2959021681        6.7830634771       24.4014382947
  H         5.9158038672        6.6139376621       25.9625137750
  C         4.8552524121        5.3956336113       24.5127536049
  S         6.8290492821        1.2205773952       25.8678408823
  C         6.3696546897        2.0666808431       27.2822942473
  H         6.6676738548        4.1783111020       28.1071393318
  C         8.1575893856        2.4831164678       22.8252860333
  H         8.0169151443        6.1564698187       22.8307254087
  C         8.5553358489        4.4880480341       21.7278069817
  H         4.9968018660        5.0961905091       23.4743571234
  H         4.5667130083        4.5438852520       25.0074061586
  C         3.5790461851        6.2184590179       24.6196571577
  C         6.0392878803        1.3456109577       28.5862419089
  C         8.5410074243        3.1317123902       21.5997731255
  H         8.2117039408        1.3935736129       22.9327780739
  C         8.9769953054        4.9026735612       20.4748624158
  H         2.9026673327        5.9946459897       23.8177004082
  H         3.8355436558        7.3269646772       24.3235671611
  C         2.9545611977        6.3317884362       25.9565165566
  C         6.1064499194       -0.0504864159       28.7958438826
  C         5.4453742170        2.1334707550       29.6604190215
  C         8.9195948196        2.4596006212       20.3679907929
  C         9.1681723716        3.7533106919       19.6464991046
  S         9.2334632164        6.3265381630       19.6343397288
  H         2.1260760812        7.0619620732       25.8347124871
  H         3.6163095319        6.7178647654       26.7264993008
  C         2.3284424365        4.9746049087       26.4942316852
  N         6.6125473570       -1.0265543218       27.9818795913
  C         5.7715764928       -0.5565335786       30.0109000285
  C         5.1584161188        1.5909199885       30.9048791473
  H         5.2219094275        3.1373955786       29.4818152531
  C         7.7231952842        1.6545468495       19.7194901973
  C        10.1575393055        1.5709287435       20.6243876503
  C         9.6358245814        4.0577696078       18.3811874152
  C         9.7190497153        5.3906505768       18.2386728641
  H         1.7914314318        4.6673033407       25.6664901282
  H         3.0863304120        4.2678062838       26.6514838327
  C         1.3236801537        5.0744522233       27.6629721848
  S         6.1957929511       -2.4432099405       28.5795086524
  N         5.8499933591       -1.9376871805       30.1320993505
  C         5.2708903982        0.1749818173       31.0923444540
  H         4.7155293261        2.2263276031       31.6918136412
  H         7.3104300668        1.0613048278       20.5459492931
  H         8.2369843214        0.9102269367       19.0932254798
  C         6.6097695541        2.4224423103       18.8745364367
  H        10.4039339100        0.9913795064       19.7302444471
  H         9.8909757400        0.9351698931       21.4515632027
  C        11.4428807479        2.4060146937       21.1166794133
  H         9.8311974011        3.2566888185       17.7548141768
  C        10.0664914816        6.1162289864       16.9680583736
  H         0.8298125356        4.1141617550       27.8603316360
  H         0.4861051754        5.7566452117       27.3866273564
  C         1.9852538533        5.6348844770       28.9394188519
  C         4.9643794195       -0.4862836357       32.4193531230
  H         7.1097621319        2.8839749963       18.0870442843
  H         6.2036022536        3.2188931474       19.4826924121
  C         5.4905521208        1.4675513038       18.4372591683
  H        11.2244396766        3.0960049776       21.9146032271
  H        11.7216141004        3.1063944851       20.2697310683
  C        12.5944956690        1.5592462140       21.6226195204
  C        10.0445086153        7.4923909109       16.7236431729
  C        10.4633702762        5.3012603380       15.7285141768
  H         2.9941757636        5.2461532034       28.9516678670
  H         2.1180876007        6.6807391591       28.8776054959
  C         1.2394175499        5.2149956998       30.2070252612
  H         4.7687350075       -1.5616379956       32.4111058305
  C         4.7303933592       -0.0207366698       33.6581739571
  H         5.1207664145        1.0170733803       19.3305737255
  H         5.9096629840        0.6637782025       17.7849908424
  C         4.3311796664        2.1779378056       17.7016686660
  H        12.4626688377        1.0556454904       22.5515568379
  H        12.7557168387        0.7654340865       20.9438337005
  C        13.8466859260        2.4620006810       21.8316247506
  N         9.7889668988        8.4684097206       17.7120277494
  C        10.4851328072        8.0975610651       15.5362341207
  C        10.8105995612        5.9830616101       14.5569357910
  H        10.4056967005        4.1998334637       15.7567911439
  H         0.6509046906        4.3631416892       30.0018351716
  H         1.9361905868        4.7005644191       30.9110215369
  H         0.6960580303        6.1167280527       30.6227407288
  S         4.5762657034        1.6294618961       34.1185463163
  C         4.6524327273       -0.9676451766       34.7802413614
  H         4.0293937862        3.0445718191       18.3464186862
  H         4.5838220235        2.6704702696       16.7192120317
  C         3.0804830822        1.3102033126       17.4961117110
  H        13.4699458897        3.4023128232       22.3413831187
  H        14.3353652708        2.6608716186       20.8824031546
  C        14.9700296690        1.8489277435       22.5730443039
  S         9.9408516210        9.9543760838       17.0393426216
  N        10.4270828758        9.4865873013       15.5688351902
  C        10.8087026744        7.4324688014       14.3665604228
  H        10.9664464485        5.3186003397       13.7570468853
  C         4.2376951342        1.1273110189       35.7979024185
  N         4.3743988914       -0.2427280090       35.9329999758
  O         4.7403502991       -2.1766543007       34.6296926143
  H         2.5452652982        1.6070684264       16.5485720902
  H         2.2751078330        1.5135717866       18.2477721936
  C         3.1692978069       -0.2091094431       17.5554914915
  H        14.5944185824        1.1348737300       23.3033826043
  H        15.4941960059        1.2164375302       21.8190515113
  C        15.9346264000        2.7787721418       23.2664345495
  C        11.1286448022        8.1602704043       13.1666526828
  S         4.0602267375        2.0802825030       37.2368960644
  C         4.2678876511       -0.9590498148       37.1621271767
  H         4.0501301866       -0.5582472410       17.0056568914
  H         3.1773157101       -0.4207676251       18.6416406962
  C         1.9470243288       -0.8392087549       16.9222973850
  H        15.4571939298        3.4156449279       24.0002677413
  H        16.2918861659        3.4320211797       22.4783664797
  C        17.0316839237        1.9366063003       23.9483632543
  H        11.0834237863        9.2333813188       13.1904618524
  C        11.6435851881        7.7752888937       11.9176850701
  H         3.5312204166       -0.4897726283       37.7464916583
  H         3.8214671075       -1.9439724766       37.0461987289
  C         5.6206922270       -1.1270050273       37.7743449326
  H         1.9502541600       -0.5364258988       15.8833091861
  H         0.9659594496       -0.5262626007       17.3165245100
  C         2.0968265451       -2.3688919612       16.8590222586
  H        17.3110265763        2.3563666824       24.8678221249
  H        16.6254476454        0.9593745692       24.2270194544
  C        18.2695566129        1.8607673661       23.0815413868
  S        12.2168137551        6.2254954444       11.4162093194
  C        11.8039538831        8.8542813090       10.8652304657
  H         6.2195273658       -0.5443959309       37.0870928923
  H         5.7490296723       -0.7192851183       38.7578422796
  H         5.8617235065       -2.2093034336       37.8610319893
  H         1.2111722600       -2.8491311624       16.3838476207
  H         2.1050575782       -2.7909774476       17.8539194700
  H         3.1170482167       -2.6291422066       16.4752077620
  H        19.0438560676        2.5105287434       23.4216409853
  H        18.0492570510        2.0148661607       22.0105882150
  H        18.6856240831        0.8571132782       23.0443136691
  C        12.4322201800        6.9948787706        9.8013087498
  N        12.2988047580        8.3387220203        9.7017873442
  O        11.3359557816       10.0202451696       10.9849119188
  S        13.0773186626        6.2329019533        8.3769124684
  C        12.3595240670        9.1049644355        8.4565974193
  H        12.6080121541       10.0895021352        8.7189168257
  H        13.0967122012        8.7881269088        7.7103806042
  C        10.9336085262        9.1102087048        7.8105042021
  H        10.7222688448       10.2393475352        7.8082651294
  H        10.9994330333        8.7671517666        6.7769820450
  H        10.2755349150        8.5342998700        8.4386580464
  H         4.5025479029        1.1920053227       12.2869224097
  C         3.8439908401        1.9744040556       12.3752770036
  H         4.4483145803        2.8345428065       12.4866722886
  C         3.0266360911        2.0191650381       11.0196478342
  C         3.1333080606        1.5177721354       13.6307759703
  C         3.8452584364        2.4823437062        9.8003159289
  H         2.1397856241        2.6072415108       11.0818894228
  H         2.6720783619        0.9870004610       10.9458065797
  H         2.4836164459        0.6880240689       13.4333885248
  H         2.6417777589        2.3323101946       14.2082025493
  H         3.8215175561        1.0250796286       14.3319434581
  C         4.7856711793        1.3543838836        9.2277536903
  H         3.1953844779        2.7413149673        9.0241500841
  H         4.6242482638        3.2012942794       10.0067991302
  C         5.6098976406        1.6968785268        7.9645618927
  H         4.1880106892        0.4136754935        9.0670659344
  H         5.4905654074        1.0640228898        9.9813614604
  C         6.7825672858        2.6110211961        8.2751309227
  H         5.0546399334        2.2788740023        7.2691592219
  H         5.9655581265        0.8611361860        7.3995607855
  C         7.9515880632        1.8048380358        8.7583950061
  H         7.0908858950        3.2114983149        7.4135746235
  H         6.5550605332        3.4265380246        8.9500095840
  C         9.2094012233        2.6937582879        8.9249845125
  H         8.1491110700        0.9592227287        8.0640380916
  H         7.7317622736        1.4874771992        9.7140957454
  C         8.8705958692        4.0204732161        9.5442499269
  C         9.6529968726        3.3859165887        7.6380689894
  C        10.4223720000        1.9042520058        9.5676266950
  C         9.0308014493        5.1525641729        8.7154618077
  C         8.5854979317        4.4622436986       10.8637931827
  C         9.6256835870        4.7472080918        7.4919196245
  C        10.1579878280        2.7362141830        6.4741181060
  H         9.9839699524        1.3963750585       10.4158235481
  H        10.7044058367        1.1568607156        8.8183990720
  C        11.6617137450        2.7738054309        9.8815360289
  S         8.6796520586        6.6617146262        9.5051537594
  C         8.4346806338        5.8092577158       10.9187927774
  H         8.4381937187        3.7146739198       11.6463340581
  C         9.9626268883        5.3371507439        6.2969644103
  H        10.2899159810        1.7151786024        6.4769031213
  C        10.4572913855        3.3536897082        5.2980181348
  H        11.3761747639        3.8178367998       10.1251141853
  H        12.0989932505        2.9309551541        8.9003086424
  C        12.8138172229        2.1520909028       10.7808341938
  C         7.9117942118        6.4664613033       12.1986083811
  C        10.3577035502        4.6834283374        5.1281375774
  H         9.8257130683        6.4506200774        6.1962903776
  C        10.8452454781        2.8923234885        4.0910199970
  H        13.6410552377        2.8380522772       10.5383961787
  H        13.0601931335        1.1351537728       10.5496836048
  C        12.2807809647        2.1981747207       12.1772684177
  C         7.9323987782        7.8845282426       12.4432536823
  C         7.4917869230        5.5991931684       13.3862237569
  C        10.6936975301        5.3737044088        3.8717036004
  C        10.9926118940        4.0058306291        3.2694554060
  S        11.2007545761        1.4430531627        3.3273565579
  H        11.7557371658        3.1799148101       12.3540522607
  H        11.5773315623        1.4283670092       12.2431911298
  C        13.4401951650        1.9461232969       13.1730804183
  N         8.4007371325        8.8802869675       11.5490396220
  C         7.5200982589        8.4363702748       13.6430454911
  C         7.1833038690        6.1289592020       14.6090129991
  H         7.5361816293        4.5244100616       13.3491613467
  C        11.9081257059        6.2306814471        3.9299141384
  C         9.4640410521        6.0330676068        3.1304386096
  C        11.3730184102        3.6445029330        1.9084730973
  C        11.5685443265        2.2681687718        1.8152464946
  H        14.0134793123        2.8738175137       13.2977274093
  H        14.2286310822        1.2927927046       12.7105119922
  C        13.0576388049        1.2388020607       14.4676390278
  S         8.3535237962       10.2632997606       12.3070812715
  N         7.5968782983        9.8766679335       13.6648541604
  C         7.1695420042        7.6032561403       14.7504487493
  H         6.8877654882        5.4586626329       15.4049409976
  H        11.7307314933        7.1738945543        4.4581656489
  H        12.2019373520        6.3678296334        2.9350341594
  C        13.1839756517        5.4597140868        4.3282641759
  H         9.4006969276        7.0504827098        3.5422053256
  H         9.7926183716        6.0748498434        2.0843527180
  C         8.1977195936        5.2188286823        3.0482073143
  H        11.2829400949        4.3998863996        1.1481947758
  C        11.6858917408        1.4425180684        0.6046783361
  H        12.2962748984        0.4148321033       14.1698421497
  H        13.9251371053        0.8610066189       14.9810263856
  C        12.4644357713        2.3196612857       15.3371777702
  C         6.9282309533        8.3888379211       15.9676915676
  H        12.9282389668        4.8842194397        5.1688990459
  H        13.4787369453        4.8895903629        3.4679321731
  C        14.3866910295        6.2152355506        4.8436965385
  H         7.9272451761        4.8189514044        4.0345321179
  H         8.4591607196        4.3606294903        2.4399512528
  C         7.0060510741        5.8940857653        2.4452929346
  C        11.7172065791        0.0791747298        0.4925471491
  C        11.8844085585        2.2628031041       -0.6520901123
  H        11.3674185413        2.2242628332       15.3057720186
  H        12.6545322061        3.2771435042       14.8729002410
  C        12.9704202706        2.2572656037       16.7499953640
  H         7.0673731032        9.4477570755       15.9252185058
  C         6.5922323537        7.9582319994       17.2673746408
  H        14.2055366887        6.8199020183        5.6572620781
  H        14.6557714437        6.9270190868        4.0677422942
  C        15.4841732064        5.1987641005        5.1492722656
  H         6.6394504120        6.7540528778        3.0474101710
  H         7.3970361295        6.2509224419        1.4414056362
  C         5.7849347126        4.9718003067        2.2807031050
  N        11.4502022226       -0.8169499266        1.5250068960
  C        12.1219167927       -0.5785964389       -0.6138792774
  C        12.2728291404        1.5768187385       -1.8053531465
  H        11.8376942990        3.3415101701       -0.6667841803
  H        14.0524986961        2.1221734113       16.8802444748
  H        12.3825763639        1.5592628301       17.2589179806
  H        12.8754303567        3.2493566343       17.1672765833
  S         6.4535760029        6.3812687751       17.8309173184
  C         6.3630906291        9.0025903616       18.3532187248
  H        15.1357736648        4.6209347836        6.0117353636
  H        15.5910062781        4.4204355495        4.3832487925
  C        16.8089871507        5.8589673999        5.4379443345
  H         5.2213950121        4.7769685747        3.2462826324
  H         6.1027811392        4.0387126083        1.9662372605
  C         4.7658619488        5.4858833105        1.2679696681
  S        11.7642117810       -2.3351601520        1.1016073826
  N        12.1128658267       -1.9930908642       -0.4561094361
  C        12.3998094811        0.1005849884       -1.8607990000
  H        12.4095037497        2.1856618286       -2.6657118439
  C         5.9824512153        7.0269338330       19.4300540904
  N         6.0233314697        8.3723040337       19.4903068427
  O         6.4088849768       10.2113895283       18.2164542154
  H        17.3245186012        5.4212448887        4.5700771434
  H        16.8625874689        6.9031404244        5.3932246389
  C        17.3072270834        5.3369034551        6.7744556651
  H         5.3957912164        5.6689601887        0.4037540880
  H         4.0768790918        4.6619286160        1.0177517123
  C         4.1461190037        6.8037245856        1.6426743836
  C        12.6158319047       -0.7172283324       -2.9971252721
  S         5.6416828682        6.1227259858       20.8870931541
  C         6.1033894603        9.1341359799       20.7356508057
  H        16.5234891118        5.6964758783        7.4617453811
  H        17.2524870917        4.2749141317        6.6805591006
  C        18.7426966896        5.7292072308        7.2150985258
  H         4.4466800726        7.1795255237        2.6051712912
  H         3.0640194855        6.6968881750        1.6821069393
  C         4.3220686938        7.8819560984        0.6134744991
  H        12.4021318131       -1.7551836550       -2.8569186134
  C        13.2639832491       -0.4226630483       -4.1796393351
  H         5.5402814867        8.6518023904       21.4782071452
  H         5.5673895443       10.0439238724       20.6135876096
  C         7.5834238811        9.1587805871       21.2873921732
  H        18.9608271089        5.1255866802        8.0976110536
  H        18.6646213889        6.7373397299        7.6512582209
  C        19.8843773331        5.6081682983        6.1529691644
  H         5.4607922238        8.1086141548        0.5943793193
  H         4.0694890092        7.4752953956       -0.3602913903
  C         3.6554771912        9.2088159145        1.0663874342
  S        14.0051861122        1.0950845771       -4.6177419989
  C        13.3073335643       -1.4516728863       -5.2104845249
  H         7.7961192456        8.1120299635       21.6219629286
  H         7.8175238982        9.9458048978       22.0249444356
  H         8.2664949488        9.3490719610       20.4700203806
  H        20.8304939785        5.6896989204        6.5910331782
  H        19.7601324901        4.7379836360        5.4414940102
  H        19.7420167781        6.4649031531        5.5427382935
  H         2.5730413356        8.9884594590        1.1285813067
  H         3.9997202640        9.4374443922        2.0632207701
  H         3.7790775898       10.1095063372        0.4880218455
  C        14.2377788873        0.3255015893       -6.1747981936
  N        13.7994003474       -0.9417517782       -6.3262000572
  O        12.9819166157       -2.6277560583       -5.0501467311
  S        15.0443028886        1.1505821368       -7.5692672698
  C        13.8674574950       -1.7523732584       -7.5517093434
  H        13.7881918334       -2.7326553980       -7.2145557531
  H        14.8682582784       -1.6453084217       -7.9514594970
  C        12.6731687307       -1.3424153395       -8.4448405108
  H        12.9271964032       -1.5900126891       -9.4565767308
  H        12.5650807228       -0.2730595359       -8.3664135661
  H        11.7473723920       -1.8194945056       -8.2479010640
