352
 i =   125600, time =    62800.000, E =        98.5947239795
  H         9.8490095751        6.6048584368       32.5167505959
  C        10.9414779262        6.4987827934       32.4864899925
  H        11.4135231331        7.2001033666       33.2373207717
  C        11.3680004814        6.7452702537       31.0322612661
  C        11.2752640340        5.1110716630       32.9983188491
  C        11.0012340997        5.6074377484       30.0785628099
  H        10.7294959122        7.6367798180       30.7714392803
  H        12.3907957111        7.1238002463       30.9544336186
  H        10.8173837790        4.2757617753       32.4795282217
  H        12.3536229414        4.9264067510       32.9778527867
  H        10.9627974540        5.0162284243       34.0522275417
  C        11.5646136786        5.7365670916       28.6375985252
  H         9.8843529842        5.5998241437       30.0656687758
  H        11.2670713135        4.6261556346       30.4903546137
  C        10.6420498533        6.4661531706       27.6956637203
  H        12.6215305264        6.0815547926       28.6459290984
  H        11.7839129218        4.7361875891       28.2438910366
  C         9.8214550737        5.4595125222       26.7756459567
  H        11.1491724064        7.1109801500       27.0550262288
  H         9.9534252768        7.0333635957       28.2866401234
  C         8.5535260435        6.1164023955       26.3791693420
  H        10.4685331078        5.2188760718       25.8979910362
  H         9.6413127086        4.5318713471       27.3071063732
  C         7.4835078375        5.2582866832       25.6759861355
  H         8.0445997255        6.4470176803       27.2715802988
  H         8.8322622264        7.0434679122       25.7645046116
  C         7.1723593034        3.9511123162       26.3777107422
  C         7.9611728539        4.5220469645       24.4361616890
  C         6.1195818931        6.0575264498       25.3714721023
  C         7.5159212997        2.8085577214       25.6415670661
  C         6.7060430617        3.5970730575       27.7167447045
  C         8.0695684975        3.1560497864       24.4040730640
  C         8.4271866986        5.1378331471       23.2568202158
  H         6.2926164874        6.9077311668       24.6944348932
  H         5.8201435346        6.3909750621       26.3325638793
  C         5.0189595785        5.1953624548       24.7853756628
  S         7.0634336295        1.3662221602       26.4158768284
  C         6.5121063313        2.2703538110       27.8201701933
  H         6.4278389812        4.4302694751       28.3829195775
  C         8.5737665876        2.5584723586       23.3152499755
  H         8.2993439980        6.1727247846       23.0631896401
  C         8.8226192183        4.5258201540       22.1276239788
  H         5.2138896292        4.7104945980       23.8063408381
  H         4.8548487710        4.3039088853       25.3449889818
  C         3.6490531434        5.8984735471       24.6619590061
  C         5.9707233593        1.6367886159       29.0431776369
  C         8.8957861376        3.1814081220       22.1142511769
  H         8.6492095537        1.4322587379       23.2946272592
  C         9.2121154530        4.9015981082       20.8935932452
  H         3.0119173103        5.3101365954       24.0940211694
  H         3.6649759963        6.7783112302       24.0137263354
  C         3.0181605408        6.3336182466       25.9206362016
  C         5.8674758050        0.2347005693       29.2641406048
  C         5.4620619882        2.5628162982       30.1094113715
  C         9.1757882244        2.4332622752       20.8543625908
  C         9.4205893402        3.7844234099       20.0745915020
  S         9.2638243397        6.3789662042       20.0839037091
  H         2.1826126140        7.1210111206       25.8633643527
  H         3.7242963702        6.9911468761       26.4555781715
  C         2.5886367662        5.1252011244       26.7301308871
  N         6.2654033518       -0.7911239219       28.3789955732
  C         5.5121359059       -0.2121910582       30.4858765820
  C         5.2290149776        2.0722629024       31.3651052786
  H         5.6301682928        3.6042053704       29.9469133445
  C         7.9522895334        1.5841121316       20.5093279677
  C        10.5024827075        1.6092635945       20.9009856171
  C         9.7696334544        4.1722078232       18.7977006802
  C         9.7723720844        5.5662892225       18.6538131389
  H         2.4436986186        4.2154873114       26.0908285831
  H         3.3346011446        4.9090520004       27.4318499247
  C         1.1750434553        5.3098512552       27.5033841359
  S         6.1446581625       -2.2656355697       29.1057807467
  N         5.6462928337       -1.6532303217       30.5633079885
  C         5.2294767575        0.5807462062       31.5482359704
  H         5.0931829215        2.6745971653       32.2870953075
  H         7.7216454034        0.9569316403       21.3658318549
  H         8.2378850835        0.9550214217       19.6836143030
  C         6.7095925421        2.4343638197       20.2412649619
  H        10.6502153653        0.9772338003       20.0708123826
  H        10.4938917472        0.9922084158       21.8417998760
  C        11.7448595350        2.4762121089       21.1245756746
  H        10.0076690165        3.4282964509       18.0517087018
  C        10.0352470996        6.2671587437       17.3578334159
  H         0.4987472897        4.4640814060       27.3100821706
  H         0.6267220393        6.2299782358       27.2715435133
  C         1.3296719373        5.3903358843       29.0019197899
  C         5.0008669661       -0.0213138565       32.8436362745
  H         6.8128224288        3.3268318618       19.7376553735
  H         6.3718575008        2.7491583115       21.2610226171
  C         5.6779541321        1.5980264737       19.4664941268
  H        11.5041262872        3.2182305706       21.9176494518
  H        12.0120880764        3.0701383846       20.1970297631
  C        12.9921416342        1.6524705961       21.5078724102
  C        10.0226097564        7.7133010130       17.1511574222
  C        10.2100551113        5.4025914351       16.1844192269
  H         0.4456434057        5.8508941947       29.4783277822
  H         1.3188058592        4.4528002219       29.4345025569
  C         2.5461526696        6.1938947337       29.4223488942
  H         5.0424037759       -1.0713893076       32.8072849775
  C         4.6539185741        0.4364463205       34.0950213559
  H         5.2914186952        1.0103712515       20.2664041134
  H         6.2558277192        0.9163144373       18.8220086933
  C         4.7828113126        2.4950539460       18.6103820557
  H        12.9563391618        1.2607855796       22.5608070384
  H        13.1144203305        0.7137675559       20.9343265240
  C        14.2671258962        2.4801838667       21.4508498277
  N         9.8607384699        8.6642753815       18.1297157628
  C        10.3553673989        8.2668575387       15.9569212696
  C        10.4348040845        5.9895313796       14.9500571404
  H         9.9451019341        4.3799601498       16.2804737700
  H         2.3864580880        6.7089476367       30.3278963119
  H         3.4123833104        5.5417186964       29.6418918347
  H         2.8523756022        6.9058733273       28.6292779568
  S         4.1649143256        2.0423611073       34.6200414471
  C         4.7702709233       -0.5924387904       35.1733458287
  H         4.8560224523        3.5073873419       19.0236039517
  H         5.1612049920        2.6191373512       17.6239768387
  C         3.3500620295        2.0477601588       18.4045188605
  H        14.0677772907        3.4834830495       21.5713415479
  H        14.6441092065        2.4823525222       20.4345616491
  C        15.3729811140        1.9459783860       22.4195899656
  S        10.0209825694       10.1047893356       17.4681993526
  N        10.4249670234        9.6064142303       16.0155168052
  C        10.5993267323        7.5089057392       14.8006951901
  H        10.5239114166        5.4559530041       14.0510369860
  C         4.0876328907        1.3442693450       36.2563327201
  N         4.2873991825       -0.0226057672       36.3176369141
  O         4.9504576090       -1.7803520033       35.0687110412
  H         2.8000415587        2.8179501630       17.7415791050
  H         2.8131785474        1.8951700527       19.3809793887
  C         3.2449851291        0.7359468237       17.6105359162
  H        15.0026352976        1.9480887149       23.4281774474
  H        15.5441644381        0.8754014945       22.1945192378
  C        16.7057870581        2.7246974634       22.2386929752
  C        10.8249172713        8.2626012065       13.6166075881
  S         3.4565914516        2.1509169241       37.6411429073
  C         4.2590517665       -0.7292342874       37.5350116685
  H         2.4196972648        0.8344210938       16.9574258921
  H         4.1622088339        0.7317070472       17.0587110981
  C         3.1739455247       -0.5178913848       18.4486116320
  H        16.5954742158        3.7382323356       22.3450976134
  H        17.0245212320        2.7682476993       21.1803950700
  C        17.8412063548        2.0997832660       23.0390816123
  H        10.3268163636        9.2416478417       13.6857588666
  C        11.4402631627        7.9273838902       12.4237656738
  H         3.7233721500       -0.1800197975       38.3277877022
  H         3.7383019283       -1.6849145502       37.4065943635
  C         5.6841186364       -1.0743163199       38.0254884755
  H         3.9297180176       -0.7603242677       19.2503767280
  H         3.3062692022       -1.3468411555       17.6698574403
  C         1.8222838051       -0.6480047381       19.0048757976
  H        18.1901675869        1.1531867704       22.5081048210
  H        18.7084968130        2.7511988304       22.9727220785
  C        17.4074446060        1.7252962151       24.5104694602
  S        12.0805162242        6.4561906836       11.9391998197
  C        11.6112539725        9.0321835777       11.5280305693
  H         6.4342314496       -0.2604264863       38.0030742788
  H         5.6770191277       -1.4527065717       39.0542018265
  H         6.1520789994       -1.8821709826       37.4552962549
  H         1.2138811063        0.2583358213       18.8094960949
  H         1.9457534951       -0.7403954960       20.0789950039
  H         1.3231151615       -1.4313277359       18.4776655737
  H        16.7424037404        0.8716668776       24.5097516877
  H        17.0125924282        2.6370834519       24.9909644965
  H        18.3014016725        1.3426049754       25.0768743362
  C        12.4011414761        7.2332700636       10.3780893722
  N        12.3252647302        8.5698286473       10.4502312794
  O        11.2096831281       10.1822487408       11.7122862410
  S        13.2660001041        6.5726766153        8.9636129301
  C        12.6675720017        9.5004967644        9.3439216861
  H        12.7785772317       10.4640512373        9.8589375885
  H        13.5429762735        9.1089097351        8.7167347647
  C        11.4454951375        9.5895172484        8.4651205283
  H        10.6945699338        8.8216298424        8.5324434529
  H        10.9264180665       10.4074682661        8.8459640344
  H        11.7054352719        9.7038178296        7.3921286431
  H         3.6406161072        3.7007384732       12.2822059381
  C         3.3245053109        2.6905076213       12.3442406563
  H         2.3566317675        2.6628058082       12.7469420236
  C         3.3059615195        2.1403526305       10.8656517544
  C         4.2515862223        1.8569411384       13.1757531807
  C         4.4547769474        2.5857922118       10.0099707954
  H         2.3011199718        2.3770657265       10.4458365706
  H         3.2216396573        1.0815205097       10.8147226287
  H         3.7454175287        1.6804535945       14.1811513576
  H         5.2776326213        2.2934145094       13.3265965164
  H         4.2801838806        0.9181720219       12.7025791359
  C         4.8072687341        1.4802638989        9.0071954192
  H         4.2540314975        3.4929487262        9.5332581562
  H         5.3047351470        2.7043168982       10.6147920116
  C         5.6527551800        1.9249088798        7.7840848864
  H         3.8157314703        1.1986296442        8.6366416366
  H         5.2628873284        0.6634606681        9.4847779207
  C         6.9194647117        2.7491788884        8.1441447793
  H         4.9363062752        2.3962434223        7.1440655490
  H         5.8664726090        1.0138738392        7.2059614771
  C         8.0732080653        1.9402545154        8.9479836508
  H         7.3232183260        3.3161535876        7.2670017924
  H         6.5922328249        3.4662596998        8.8364088259
  C         9.2850803351        2.8210389560        9.2119396044
  H         8.4949544266        1.0681892540        8.4921441382
  H         7.5393032287        1.5124207967        9.7825091291
  C         8.9788095047        4.2107840531        9.8835792355
  C         9.8595363060        3.5776568382        8.0702234308
  C        10.4155448632        2.0576477789        9.8783167918
  C         9.3324056605        5.3423912127        9.1779296276
  C         8.2512535618        4.5651124778       11.0558876079
  C         9.9207469754        4.9570448685        7.9720803726
  C        10.3724069673        2.9286230565        6.9803285302
  H        10.0007517925        1.6123658514       10.7383744965
  H        10.6782990391        1.1212785663        9.3795006994
  C        11.6385700473        2.9364716848       10.3139407928
  S         8.9967814974        6.7783476595        9.9822662376
  C         8.3409454059        5.9113506770       11.2955260591
  H         7.7235983532        3.8588568262       11.6152584637
  C        10.3799264202        5.6066487930        6.8450166551
  H        10.2811661626        1.8049989672        7.0488464993
  C        10.7846629008        3.5300528191        5.8401883552
  H        11.3460083488        3.8790249111       10.7685369097
  H        12.1064927237        3.1386109211        9.4116202656
  C        12.5185819913        2.1840960555       11.2801332403
  C         7.7302388810        6.5938182963       12.4878825688
  C        10.7963692588        4.8691989859        5.7117487200
  H        10.4487429193        6.6957672347        6.7968277828
  C        11.1313952996        3.0895323587        4.6253934642
  H        13.6207755904        2.4421261193       11.2205342004
  H        12.4602405384        1.1352596225       11.1293078610
  C        12.0963893773        2.4127443745       12.7369782713
  C         7.7218117201        8.0020139446       12.7220757153
  C         7.5035598478        5.7301576718       13.6346556803
  C        11.1549593592        5.4912473703        4.4070765207
  C        11.3272373917        4.1370254278        3.7355495643
  S        11.2993384574        1.5381188607        3.9648181470
  H        11.6635899804        3.3307401631       12.8543423208
  H        11.2522123878        1.7645169605       12.9745209638
  C        13.1865772483        2.0827006918       13.7800990928
  N         7.9836370408        9.0299701916       11.8194956646
  C         7.4998671146        8.5142132887       13.9807876051
  C         7.0398158737        6.2738869206       14.7932137037
  H         7.4844065827        4.5911556128       13.5885965661
  C        12.4677044551        6.2095617493        4.5725638610
  C         9.9625166213        6.3345685485        3.8014812725
  C        11.5837528856        3.6262236253        2.4241681845
  C        11.6424788147        2.3047747709        2.4590093911
  H        13.5486936712        2.9979723724       14.1354204395
  H        13.9476036416        1.4865999442       13.3065210131
  C        12.4073538133        1.3902475599       14.8601538778
  S         7.8761297625       10.4788305913       12.5602074060
  N         7.6036669874        9.9074958057       14.0696777813
  C         7.1706675135        7.7149207417       15.0959371086
  H         7.0778254825        5.5755734296       15.6170781483
  H        12.3360272856        7.0071322316        5.3316586137
  H        12.7388641299        6.6193327175        3.5976385218
  C        13.6741871637        5.3781187053        4.9707793693
  H         9.6701538342        7.0570875898        4.5695455291
  H        10.3487796287        6.8841480737        2.9573454707
  C         8.7091620201        5.5264558363        3.3516332162
  H        11.6700666996        4.3745191221        1.6247451116
  C        12.0572448177        1.4993379539        1.2952231874
  H        11.5710398578        1.9965963722       15.1196702702
  H        12.1201706906        0.4031474760       14.4895390780
  C        13.1798886701        1.1352407646       16.1352892775
  C         6.8575641194        8.4235870281       16.3019002122
  H        13.4826440719        4.6818322200        5.7502744549
  H        14.0899758847        4.9191993900        4.0304652718
  C        14.6877336667        6.3277140671        5.5405572718
  H         8.3976338280        4.8598094922        4.1366939519
  H         8.9079751691        4.8743196209        2.5247480204
  C         7.6143860142        6.4958594186        2.8707117413
  C        12.0684946063        0.0910104178        1.1452073747
  C        12.3106799360        2.2146979342       -0.0092827521
  H        14.2081861368        0.8983222416       15.7965385232
  H        12.8677992677        0.2042759907       16.5834620253
  C        13.2311263332        2.3544317939       17.0379028389
  H         7.1868524262        9.4338925772       16.3043228747
  C         6.4633173047        7.8830716974       17.5288112825
  H        14.3408296305        6.8164260586        6.4516826998
  H        15.0209553502        7.0179671047        4.7893505195
  C        15.8707971308        5.4502267326        6.0245391505
  H         7.3470969624        7.2059071788        3.6159817320
  H         8.0552407212        7.0298309612        2.0428153800
  C         6.4068771194        5.7892075872        2.3334693386
  N        11.9135860721       -0.8127162141        2.2374279913
  C        12.3703546554       -0.5909566824       -0.0391252095
  C        12.4309344569        1.5448547854       -1.2029900752
  H        12.1112807727        3.2852442197       -0.0288702075
  H        12.3021705834        2.7684376649       17.3166704330
  H        13.7472099366        3.1381404517       16.4440660519
  H        13.8693146626        2.2189618712       17.8321574053
  S         6.1093547576        6.2305194229       17.8610834020
  C         6.3071954250        8.8558647449       18.6528097459
  H        15.5757927783        4.6509632462        6.6688683038
  H        16.2268422394        4.8774410378        5.1735362508
  C        17.0208764149        6.2402746448        6.7430706259
  H         5.8107414428        5.6602127687        3.2542048417
  H         6.6003753755        4.8219121120        1.8640834107
  C         5.6649589876        6.5981901800        1.2901922364
  S        12.0629026907       -2.3078793955        1.6994108883
  N        12.5268745884       -1.9273790722        0.2037194172
  C        12.5528034246        0.0468502452       -1.2426204864
  H        12.5533827736        2.1181431019       -2.1015636370
  C         5.8841327386        6.8584729961       19.5441940288
  N         5.9482107794        8.1791783819       19.7392672584
  O         6.4940800983       10.0835861018       18.5953999064
  H        17.5179426191        6.9351274061        6.0510518751
  H        16.5301342285        6.8659554553        7.4618703332
  C        18.0007316325        5.2967638851        7.4318390437
  H         6.3426473443        7.0582600825        0.5862172502
  H         4.9158725704        5.9416291079        0.7905746589
  C         4.7887577716        7.6842934842        1.8335112092
  C        12.8543985859       -0.7491849598       -2.3797758611
  S         5.6196180057        5.8468703067       20.9853133692
  C         5.7753082526        8.7893996592       21.0165091051
  H        17.5968351079        4.8857586775        8.3857769690
  H        18.2457278600        4.4811005307        6.8489947219
  C        19.2182617458        6.0170271229        7.9487913041
  H         5.2721338503        8.2172113247        2.6215761946
  H         3.9327420230        7.1135185223        2.1702243768
  C         4.4600918157        8.7240737540        0.7289501281
  H        12.5705386467       -1.8268421532       -2.3620539704
  C        13.5103010851       -0.4314519093       -3.5767111070
  H         5.0421889873        8.3330298903       21.6622524959
  H         5.4447629881        9.7922630273       20.8671755471
  C         7.0536737069        8.7475700795       21.8313320472
  H        19.6250909907        5.5998382641        8.8060407992
  H        19.0736870254        7.0842725305        8.1205096878
  C        20.2197114943        5.9059314592        6.7439820536
  H         5.4096309231        9.1214975207        0.3651170528
  H         3.9338741775        8.1888062817       -0.1420887787
  C         3.8000241256        9.9459380500        1.1793571803
  S        14.1041823127        1.1596172839       -4.0719790304
  C        13.5835258531       -1.4546145857       -4.6476301798
  H         7.2144922594        7.9327101880       22.5448429556
  H         7.1245746082        9.6344904907       22.4607060329
  H         7.8981023452        8.8396693244       21.1285328075
  H        19.8233089352        6.3507764188        5.9296374807
  H        21.1420976397        6.4923158101        6.9814365358
  H        20.5545107690        4.8423432880        6.5488764773
  H         4.4031374990       10.4387180915        1.9585648876
  H         3.8309929056       10.6173223327        0.3822243959
  H         2.8356684077        9.8403547913        1.5347108108
  C        14.4915486361        0.4467047122       -5.6420854708
  N        14.1584332599       -0.8767664038       -5.7266246908
  O        13.2452294136       -2.6154918835       -4.6108134015
  S        15.3312267502        1.2438269354       -6.9744971633
  C        14.2218278714       -1.6730782136       -7.0294109840
  H        14.3983575935       -2.7250297888       -6.7832006415
  H        15.0355049396       -1.3730474007       -7.7013898430
  C        12.8843586764       -1.5350625952       -7.8427981618
  H        12.2033325541       -2.2735664866       -7.4852940792
  H        12.9332421933       -1.7172350030       -8.9175910241
  H        12.4435095611       -0.5589537688       -7.6659071490
