352
 i =   117000, time =    58500.000, E =        99.9485357325
  H         9.6040438960        6.1225811806       32.2507566646
  C        10.6925234115        5.9172284190       32.2569645854
  H        11.3923684157        6.7648731360       32.2764935596
  C        11.0089455289        5.1701713088       30.9819077855
  C        11.0623807707        5.0129663309       33.4277297755
  C        10.6459577120        5.7519938640       29.6345814479
  H        12.0593952014        4.9147930661       31.1150305776
  H        10.5167000516        4.2665645873       31.0199706885
  H        10.1496069331        4.5092105633       33.6887051990
  H        11.8179783535        4.1671781748       33.2089573894
  H        11.3817242995        5.6493942981       34.2062033245
  C        10.7236275522        4.7347529361       28.5175055113
  H        11.3469533527        6.5413167863       29.3687447793
  H         9.6941728812        6.2493041058       29.6670597152
  C        10.4944102040        5.2900989423       27.1203689262
  H        11.8154374206        4.6358948352       28.4369710237
  H        10.2652767157        3.8288850293       28.7231591504
  C         9.3664083447        4.6074932713       26.4041399957
  H        11.4226488996        4.9495195650       26.6143098898
  H        10.4601301884        6.3467655496       26.9319757090
  C         8.0817642962        5.4359232974       26.4882822281
  H         9.5465437580        4.3417137830       25.3656114254
  H         9.1686874059        3.6668192405       26.9732640075
  C         6.8602477649        4.7699135150       25.7688614137
  H         7.8566674374        5.7051401829       27.5199919792
  H         8.3172466129        6.3302866258       25.9482806550
  C         6.5477207716        3.4286635248       26.4993717116
  C         7.1829365968        4.1293754911       24.5140162756
  C         5.6524167693        5.7757205261       25.6552518329
  C         6.7657804939        2.3526363064       25.6586067701
  C         6.1341779933        3.0300940879       27.7348691587
  C         7.1134321191        2.7396690334       24.4104428673
  C         7.6267288652        4.8174728485       23.3711949010
  H         5.9902266189        6.7145654908       25.1662176502
  H         5.3815026949        6.1646767198       26.6222654135
  C         4.4276781716        5.1339352755       25.0311089173
  S         6.5699014376        0.8506517177       26.4375894821
  C         6.0371146391        1.6947325415       27.8105810531
  H         5.7532078562        3.6668777219       28.4608568550
  C         7.6217242619        2.1626358908       23.2680383423
  H         7.6068957037        5.8852600022       23.3980924913
  C         8.0106632925        4.2079192630       22.2172393803
  H         4.6450827638        4.8478593606       24.0018971626
  H         4.2547989763        4.2339410188       25.5196426618
  C         3.2712685219        6.1206333554       25.0276883029
  C         5.6468758788        0.8723713020       29.0258953229
  C         8.0905552362        2.8014297359       22.1873505225
  H         7.5833068040        1.0943866172       23.2971949521
  C         8.4424339712        4.6329099125       21.0524110883
  H         2.6303311769        5.6639756995       24.2292387732
  H         3.6219994107        7.1198652383       24.6818002254
  C         2.5694027980        6.1562748560       26.3844318999
  C         5.6058197503       -0.5181977572       29.2171092411
  C         5.0444443000        1.6302755154       30.2015867502
  C         8.6362598474        2.1192506832       20.9014308819
  C         8.8794389930        3.5349571880       20.2985861173
  S         8.6339750213        6.1526286716       20.2625146314
  H         1.6100882530        6.6746741271       26.1790281940
  H         3.0299924009        6.7955282966       27.0342535012
  C         2.2209228820        4.7960217004       27.0048342860
  N         5.7709212398       -1.4471336836       28.2046796550
  C         5.2576719774       -1.1321334415       30.4269845203
  C         4.7517822732        1.0334841845       31.3946202484
  H         4.9491418342        2.6983393285       30.0925569458
  C         7.6177316216        1.3345052017       20.0384664564
  C         9.9899263561        1.3504556444       21.0746954830
  C         9.3965691204        3.9797419738       19.0510760085
  C         9.3177593565        5.3526261238       18.9238288681
  H         1.8837266598        4.1385907443       26.1783827688
  H         3.1924283380        4.3941822197       27.4385969269
  C         1.3314566833        4.8281125215       28.2582592244
  S         5.6012511844       -2.9359469419       28.7743622573
  N         5.3316249655       -2.5262773607       30.3671291664
  C         4.8557291767       -0.4543237342       31.5916656769
  H         4.4583888163        1.7230245974       32.1524638759
  H         7.1009977217        0.5221886353       20.6351736946
  H         7.9650503544        0.9527896464       19.1748463289
  C         6.5235894154        2.2417258979       19.4751242435
  H        10.2783877918        0.9022097832       20.0817058012
  H         9.9321943075        0.5072633111       21.8413020193
  C        11.1625199037        2.3448130497       21.4726983022
  H         9.6718647391        3.2579744527       18.2680180772
  C         9.7428133205        6.0752481070       17.6585788242
  H         1.1725084835        3.7575378132       28.5130568023
  H         0.3628283807        5.1926748708       27.8922656033
  C         1.8205312147        5.5833775216       29.4759762358
  C         4.6704081964       -1.1391548983       32.8263649683
  H         6.8448538775        2.9153663145       18.7095337261
  H         6.0801559765        2.8479121250       20.3132428681
  C         5.4928027469        1.4697696541       18.7745248813
  H        10.9892586113        3.0590168453       22.2030889273
  H        11.4392008464        2.9403245510       20.6294510648
  C        12.4713508794        1.5760519110       21.7534969431
  C         9.6145421994        7.5011254944       17.4209258512
  C        10.0311660573        5.3232462591       16.4123672305
  H         2.2962704733        6.5426177786       29.2561128902
  H         0.9736748402        5.8360959279       30.1368616000
  C         2.9781598648        4.9112265981       30.1570981050
  H         4.7936127292       -2.2059803915       32.6065349758
  C         4.4303292887       -0.6447774203       34.0618066758
  H         5.0202045093        0.8481396077       19.6065626405
  H         5.8911270880        0.7937834315       18.0112601905
  C         4.4983977691        2.4534533044       18.1380894482
  H        12.2812770628        0.7663389538       22.4566670557
  H        12.9935914026        1.1821342280       20.8778522579
  C        13.3337941252        2.4320859842       22.5233268784
  N         9.2515280045        8.5042277674       18.3537807770
  C         9.9896831545        8.0664048540       16.2558013406
  C        10.3949057935        5.8862704684       15.2111658823
  H        10.1469979272        4.2123792995       16.5509657786
  H         3.1567450869        5.1510168458       31.1973585818
  H         3.0443117294        3.8522047412       29.9217402713
  H         3.8475662857        5.3486038221       29.8343941750
  S         4.2722703406        0.9202180049       34.7114150803
  C         4.3464386268       -1.7377852482       35.1274920757
  H         4.4621400909        3.3264610131       18.8033163175
  H         4.6913382556        2.8036260712       17.1208766777
  C         3.0326428511        1.8910773016       18.2150183019
  H        12.8543217747        2.5958219997       23.4684817961
  H        13.5704236196        3.3268592330       22.0274661274
  C        14.7602706157        1.8894737899       22.8529283223
  S         9.3774183983        9.9803958443       17.7716207211
  N         9.9137446766        9.4927073184       16.3111742834
  C        10.3219448938        7.3561364446       15.1019960457
  H        10.7022500246        5.2793083662       14.4248356629
  C         4.0403532372        0.1672538835       36.2325865840
  N         4.0746972198       -1.1539078765       36.3093728226
  O         4.4229645071       -2.9494819385       34.9144713097
  H         2.2849305107        2.6269779857       17.8087452015
  H         2.8387621304        1.6661651115       19.2858230530
  C         2.8964880669        0.5118073662       17.4260272130
  H        14.9857659701        2.3944454630       23.8342583788
  H        14.7246876158        0.8256398772       23.0224323585
  C        15.7896632066        2.4088379074       21.7453344576
  C        10.5272028207        8.1191692135       13.8802559883
  S         3.7182599759        0.9657066811       37.7816001578
  C         4.0426936915       -2.0095256810       37.5888413997
  H         2.4997527179        0.6346056477       16.3936076367
  H         3.9202109211        0.0106872001       17.2704026161
  C         1.9964055896       -0.5283168161       18.0957426965
  H        16.0916290008        3.4765202648       21.9534895823
  H        15.4474891235        2.4424434010       20.7038046994
  C        17.0837315543        1.6462810411       21.8554029710
  H        10.4292261464        9.1701899097       13.9715046624
  C        11.0663187761        7.8016536582       12.6692287929
  H         3.4195695377       -1.5875196808       38.3899535398
  H         3.5439927409       -2.9620009145       37.3535569106
  C         5.4671894608       -2.1549220823       38.2081038215
  H         1.1319888269        0.0200949845       18.5007973175
  H         2.5355862432       -0.7645657700       18.9806284557
  C         1.4415955458       -1.8115758911       17.4037159535
  H        16.9530228613        0.6541510493       22.1953452963
  H        17.6503937594        1.6330640047       20.9606765167
  C        17.8369776977        2.3613271419       23.0006745026
  S        11.5156332581        6.1749527041       12.0239577482
  C        11.0805463479        8.8973356262       11.6855014768
  H         5.8850030909       -3.1829013452       38.2803023013
  H         6.1280241191       -1.6111323491       37.6351810386
  H         5.5437734930       -1.6759762397       39.2260656119
  H         0.6145274631       -2.1042268052       18.0345885089
  H         2.1218944145       -2.6927908524       17.4775948544
  H         1.1284348355       -1.6276119655       16.3494526480
  H        17.2949568957        3.0585530335       23.6282334674
  H        18.6552667796        2.8478521496       22.5390336553
  H        18.1947683385        1.6418918680       23.7689086791
  C        11.8543215975        7.0917186358       10.5198891860
  N        11.5864396255        8.4065890712       10.5411240170
  O        10.7149973906       10.1097462799       11.8926758648
  S        12.4858873092        6.3607886032        9.0816835236
  C        11.7218049203        9.3044346907        9.4418981788
  H        11.9495927873       10.3174084120        9.8025755535
  H        12.5071193489        9.1484641408        8.6487128355
  C        10.2705214502        9.5275450506        8.8571795402
  H         9.6939727240       10.0602365191        9.5855136532
  H        10.3235420099       10.2272554948        7.9921974587
  H         9.7872522031        8.6171442811        8.6116039428
  H         2.8978093593        3.3219360279       12.9337708573
  C         3.0223045384        2.3173020926       12.5943746690
  H         2.4548839185        1.5721774783       13.1116361054
  C         2.4655653474        2.1511965026       11.1692439407
  C         4.5244386897        1.8843041227       12.8251267809
  C         3.4000927886        2.7204361781       10.1750585517
  H         1.5191709186        2.8252971019       11.0782910375
  H         2.1694005027        1.1174777921       11.0192581815
  H         4.8440048448        1.0004628301       12.3600078386
  H         4.6562604215        1.7094359439       13.9226741080
  H         5.2886480461        2.6937439314       12.5074112558
  C         4.1618645011        1.5811749670        9.3712693430
  H         2.8358234134        3.3431602731        9.4789684263
  H         4.1097012092        3.4660335738       10.5808784499
  C         4.8820426033        1.9974722256        8.1166074421
  H         3.4035475674        0.7899312108        9.0922663889
  H         4.8468975584        0.9708203655        9.9818647502
  C         6.2219389215        2.7353357245        8.4628268919
  H         4.1782129761        2.7058158309        7.6688957607
  H         5.0295365411        1.2212316088        7.3680042529
  C         7.4051718506        1.8543987373        8.8745496973
  H         6.3966942311        3.3828417435        7.6346425376
  H         5.8719134122        3.3835811355        9.3087776656
  C         8.6978067879        2.7330565483        9.2877096937
  H         7.5874377959        1.0295112490        8.2128387407
  H         7.0652039688        1.3182389927        9.7980530231
  C         8.3763101177        4.0789151814        9.9801504476
  C         9.2438122638        3.4743381404        8.0659053113
  C         9.7467878789        2.0077711299       10.1398583135
  C         8.6956450543        5.2307204603        9.2519365819
  C         7.7416897546        4.4162318367       11.2386400777
  C         9.2817598126        4.8447393026        8.0596980148
  C         9.8744114569        2.8635606994        6.9653965395
  H         9.2899691728        1.8061884646       11.1072128645
  H         9.8779668585        1.0803385724        9.6447067396
  C        11.0601238323        2.7708555916       10.3413039114
  S         8.2082997620        6.6666433768       10.0156204415
  C         7.5794927320        5.8016507325       11.3766617306
  H         7.2887833064        3.6661013065       11.8692760677
  C         9.6914783927        5.4613106020        6.8939449904
  H         9.8349907724        1.7691306504        6.9904918421
  C        10.2507265562        3.4760336450        5.8786397181
  H        10.9346885438        3.8065069222       10.6411083621
  H        11.5453502427        2.7764940320        9.3352045655
  C        12.1221259660        2.0407070063       11.1728665092
  C         7.2683634956        6.4444262665       12.6706471752
  C        10.2150018937        4.8323989529        5.7568860053
  H         9.6823846926        6.5283931213        6.8547639376
  C        10.6614224712        3.0699948681        4.6383037176
  H        13.1310648512        2.3376478827       10.8870242653
  H        11.9966920776        0.9949850891       11.1580398479
  C        11.8366744439        2.4820927374       12.6532814621
  C         7.2903037343        7.8471794569       12.8999847745
  C         6.9641965516        5.5877798892       13.8563819495
  C        10.5999555405        5.4937990031        4.4439116987
  C        10.9124278425        4.1534235671        3.7884666975
  S        10.8874652308        1.5073133961        3.8573501007
  H        12.6539915206        3.1999225151       12.9166551253
  H        10.9588407368        3.0629185499       12.8437232540
  C        11.9851667268        1.5039493358       13.7638570299
  N         7.7554887026        8.8054620873       11.9841445083
  C         7.0219507110        8.3482956366       14.1622693033
  C         6.7904287558        6.1165694727       15.1444958768
  H         6.8655736349        4.5099147292       13.6627884279
  C        11.8116561129        6.4593866161        4.6156518445
  C         9.3634414038        6.2223467745        3.7578342265
  C        11.3547309540        3.6780981704        2.5258439602
  C        11.3768677798        2.3223823066        2.4457028916
  H        13.0011784632        1.0334915307       13.8188541871
  H        11.3364156677        0.7014836003       13.6677211475
  C        11.7737177498        2.1446177922       15.1692451225
  S         7.6442648354       10.2812507922       12.6418321089
  N         7.1378197643        9.7769989871       14.1234955503
  C         6.8271125329        7.5874534444       15.2934610048
  H         6.5529245294        5.4217011586       15.9109820954
  H        11.4417880380        7.1521608489        5.3456965685
  H        11.9827256247        6.9389687729        3.6849210749
  C        13.0495361669        5.7891997241        5.1453395153
  H         9.1352819718        6.9950026518        4.4840339542
  H         9.7218850398        6.5800599524        2.7969141584
  C         8.2105761083        5.3711940227        3.5517815452
  H        11.5998277300        4.3983184138        1.7507838899
  C        11.8219412568        1.5813170455        1.2053289189
  H        11.4368097037        3.1455403688       14.9341528696
  H        10.9439781296        1.6656782350       15.6676408992
  C        13.0456842899        2.0388643967       16.0770799062
  C         6.6021721558        8.2094836387       16.5388091825
  H        12.8627695850        5.1865681454        6.0449729903
  H        13.4377819427        5.0700671593        4.4138003242
  C        14.2815789228        6.6956382835        5.4781948808
  H         7.9719459705        4.6691656297        4.3619871211
  H         8.4977651679        4.6862562814        2.7690824494
  C         6.9289046482        6.0813047793        3.1260139126
  C        11.8811066875        0.1929282085        1.0146362109
  C        12.0119090839        2.3641424588       -0.0451625219
  H        13.7992203392        2.6076712037       15.5091596713
  H        13.2263137565        0.9470344725       16.0164318793
  C        12.8402915446        2.7374400830       17.4553216435
  H         6.5695717382        9.2982152732       16.4300646538
  C         6.1727332848        7.7963972712       17.7809267900
  H        13.8879435007        7.5298537074        6.0704035168
  H        14.7157526039        7.0415373972        4.5577734666
  C        15.3176919251        5.9724108297        6.4091082147
  H         6.0434099554        5.4824797423        3.2910026677
  H         6.9071081581        6.9431796825        3.8431251648
  C         6.9641115010        6.5267698680        1.6058403569
  N        11.6670448668       -0.7297209123        2.0203741987
  C        12.2280532726       -0.3572365257       -0.1902967779
  C        12.3194529058        1.7563715450       -1.2422397484
  H        11.6367807847        3.3749759981        0.0283467136
  H        13.7155571846        2.8339704998       18.1251398987
  H        11.9495986233        2.4284413999       18.0579441736
  H        12.6210500856        3.7979460838       17.2242105386
  S         5.8027284896        6.2014025502       18.3507434443
  C         6.0728750151        8.9081602306       18.7422643470
  H        15.4535094864        6.6010903565        7.3417513586
  H        14.9370196446        5.0242087039        6.7796166400
  C        16.7980336611        5.8820786725        5.9757837834
  H         7.3492431799        5.6818352342        1.0193654161
  H         7.7635175269        7.2798275918        1.5992738198
  C         5.6627434180        7.1620903495        1.0733909389
  S        11.8382508445       -2.2202555974        1.3091276430
  N        12.2098912225       -1.7496914977       -0.1539983498
  C        12.4968882021        0.3257944290       -1.4085861613
  H        12.3230485446        2.3387142741       -2.1931087946
  C         5.7299687162        7.0348659363       19.9285792194
  N         5.6891847497        8.4294974215       19.8674050375
  O         6.3740607528       10.0668543993       18.4387296900
  H        16.8879418205        5.3396796741        5.0372315873
  H        17.2239953824        6.8073252599        5.7611002021
  C        17.7061067362        5.2081101357        6.8980662255
  H         6.0161410414        7.6320451661        0.1506498212
  H         4.8525167227        6.4788014730        0.7971794109
  C         5.0433624651        8.2170893255        2.0702265244
  C        12.7332964097       -0.4123562597       -2.6348594337
  S         5.1368760482        6.2848838130       21.4591611719
  C         5.6037645807        9.3682251518       21.0058423796
  H        17.1457504243        5.1132516769        7.8519021155
  H        17.9995936255        4.1956300133        6.5501288951
  C        18.8981624288        6.0483866316        7.1818554419
  H         5.6955148394        9.0750417680        2.1127881736
  H         4.9717921693        7.8167884357        3.1531622827
  C         3.6439804537        8.6628049683        1.5759059328
  H        12.7535071290       -1.4607039607       -2.5390361284
  C        13.1636005684       -0.0672102992       -3.9097263825
  H         4.8862045070        9.0723315087       21.7185392280
  H         5.4092550190       10.4120160972       20.7124400270
  C         7.0180749059        9.2984471244       21.6783567580
  H        19.3928493148        5.4547214165        7.9721708670
  H        18.6073698532        7.0568509530        7.5175242318
  C        19.9649249069        6.2318070062        6.1243327343
  H         3.5505970694        8.6920681752        0.4876370944
  H         2.9390678093        7.8825709496        1.9535021087
  C         3.2139545779        9.9002540253        2.3160963404
  S        13.6643935637        1.5200404737       -4.4558548411
  C        13.4346430450       -1.1561763670       -4.8594756860
  H         7.9719397110        9.5102224780       21.1037465667
  H         7.1161901143        8.3141860187       22.1027180909
  H         7.0191362015       10.0968305113       22.4830279954
  H        19.6976586715        6.6444573903        5.1827091830
  H        20.7906717544        6.8911098100        6.4828874176
  H        20.3152350652        5.3177039695        5.7750801382
  H         3.5028245975        9.9416313103        3.3408995863
  H         3.5632384312       10.7405866293        1.7290035128
  H         2.0971271574       10.0304131679        2.1971845008
  C        14.2656289729        0.6582701242       -5.9080380397
  N        14.1419530994       -0.6505262129       -5.8692108579
  O        13.0251564773       -2.3216917265       -4.7240712819
  S        14.9242166170        1.4576375870       -7.3325348221
  C        14.3331998983       -1.4416214923       -7.0926934070
  H        14.3727982036       -2.5183181908       -6.9128592325
  H        15.2472761270       -1.2614453954       -7.6254910680
  C        13.1230698498       -1.2906452209       -8.0625329222
  H        12.1770277916       -1.4324117900       -7.5277673551
  H        13.1787165229       -2.1403348137       -8.6078301547
  H        13.1384112673       -0.4461710117       -8.7101113654
