352
 i =    12900, time =     6450.000, E =       124.6932234895
  H        11.1247217512        5.0334709350       32.5903009747
  C        10.5640914547        5.9987989316       32.6534043868
  H         9.8412174362        5.8710061948       33.4858072202
  C         9.8961755049        6.2386313934       31.3742679869
  C        11.5211718407        7.2340733813       32.8670979027
  C        10.7108502374        5.7610749700       30.1813020028
  H         9.1521575538        5.5005036309       31.4271638616
  H         9.4762866666        7.1437333263       31.3297003644
  H        12.1077881744        6.9301343949       33.7317332037
  H        12.2482161314        7.3842009843       32.0961261914
  H        11.1796229734        8.2549706965       33.0708340761
  C         9.7856679665        5.2569005899       29.1524051939
  H        11.4618202217        4.9876306915       30.4119138268
  H        11.3754946186        6.5540084849       29.8926899941
  C        10.1447020968        5.5942873722       27.6860416166
  H         9.7765525461        4.2438555661       29.2875273810
  H         8.7640575739        5.6407339840       29.3232607869
  C         9.1627249687        4.9555507732       26.7879050929
  H        11.1681770128        5.2755400146       27.5895161147
  H        10.1716771222        6.6417285645       27.3155834416
  C         7.8733247142        5.7953542586       26.4257836060
  H         9.6569973975        4.6178426279       25.8900348783
  H         8.9669654471        4.0315038449       27.3390380382
  C         6.8667861494        5.1061860660       25.6239738070
  H         7.4663486464        5.9790907778       27.3470703289
  H         8.1581593404        6.6914868780       25.9714620271
  C         6.5733972807        3.7722189809       26.2672454257
  C         7.3074824734        4.5154335664       24.3326089076
  C         5.6025414695        5.9579506819       25.4748161353
  C         6.8030829634        2.7225337992       25.4446971510
  C         5.9490806840        3.4057510674       27.4470481979
  C         7.3242830889        3.1615948839       24.2579991395
  C         7.8542164272        5.1568141161       23.2826110416
  H         5.8671673455        6.8249830420       24.8495107046
  H         5.1874662783        6.1726671416       26.4562090628
  C         4.4200013679        5.2164578991       24.7648262022
  S         6.4396472741        1.1851971547       26.2162895689
  C         5.9659365006        2.0349165871       27.6201702292
  H         5.6594599844        4.1336805223       28.1842744425
  C         7.8688046341        2.5580913954       23.1633984563
  H         7.9404642493        6.2079999714       23.3721869375
  C         8.3778350467        4.5191088695       22.1903384374
  H         4.7603086730        5.0047704188       23.8069317082
  H         4.1440329040        4.2117821603       25.1963768228
  C         3.1457083876        6.0272699695       24.5131350115
  C         5.6621989157        1.3890172681       28.9086372145
  C         8.3842200046        3.1969776142       21.9963043889
  H         7.8174728458        1.4339409169       23.1421930172
  C         8.8373407556        5.0242341858       20.9270737140
  H         2.5121185432        5.4986806156       23.8927486349
  H         3.4207034726        6.9226292406       23.8876884609
  C         2.5963936364        6.6713631873       25.8209964810
  C         5.8164343349       -0.0166570306       29.2216417705
  C         5.0839410217        2.2216480923       29.9864345538
  C         8.8009373635        2.5947216365       20.7088561193
  C         9.0470067903        3.9708350034       20.0683318680
  S         9.1243941734        6.4802038837       20.1165778657
  H         1.7272418760        7.4111245721       25.5222885160
  H         3.3144108384        7.2793175834       26.3706751808
  C         1.9472480610        5.6960491799       26.8534183067
  N         6.2689082261       -0.9907076393       28.3724941267
  C         5.3171403955       -0.5891087382       30.3486296554
  C         4.8227932916        1.5956298893       31.2316088709
  H         4.8344655553        3.2586330358       29.9078356266
  C         7.6337377594        1.7346773529       20.0879285925
  C        10.1374770530        1.8426980010       20.7506051478
  C         9.4111951897        4.3022748237       18.7381989703
  C         9.4588017315        5.6541732092       18.6468499739
  H         1.5380308824        4.7250510467       26.4298964345
  H         2.8553578378        5.2539458394       27.3875788370
  C         1.1677616739        6.3628474201       27.8948483004
  S         6.3015507133       -2.4378521670       29.1391206201
  N         5.4623028012       -1.9579861372       30.3654111342
  C         4.9827180300        0.1461003367       31.4903849323
  H         4.4730385049        2.3070803010       32.0065154506
  H         7.2105042003        1.0915454817       20.8294645195
  H         7.8735577030        1.1429347746       19.1561288751
  C         6.4430622448        2.6473785957       19.6108180248
  H        10.1202255953        0.9847053448       20.0398281488
  H        10.0733608820        1.2911595923       21.7299320817
  C        11.4638806514        2.6036905869       20.9778043187
  H         9.4929486690        3.4663476607       18.0638855543
  C         9.7310542336        6.5631226810       17.4232501694
  H         0.4481716140        6.9902058622       27.3353121276
  H         1.9149051287        7.0043734386       28.4300160261
  C         0.6204022814        5.4053748487       28.8794095282
  C         4.7062545788       -0.5521413697       32.6677997094
  H         6.7665872609        3.5130661627       19.0171197319
  H         5.9062914335        3.1629053168       20.5096336971
  C         5.4814967467        1.7673090897       18.8003751547
  H        11.1863245288        3.1972090795       21.8086057512
  H        11.7142109010        3.2231967262       20.1117901034
  C        12.7153704171        1.7057476711       21.3076983913
  C         9.8864019572        7.9592340981       17.3065345856
  C         9.9028609326        5.7751669120       16.1884486841
  H        -0.4385280002        5.3423329583       28.6095015633
  H         0.9477113576        4.4263397528       28.4699067544
  C         1.2752411827        5.5380422640       30.3080905383
  H         4.9619008526       -1.5718518598       32.7449783294
  C         4.4631833712       -0.1574168793       33.9803176815
  H         5.1675640241        0.9074453671       19.4511127536
  H         5.8776667432        1.4982054318       17.8668183932
  C         4.1979065103        2.5147232382       18.4101727819
  H        12.4369173110        0.9378376576       22.0659328471
  H        12.9482893717        1.2289104546       20.3995066490
  C        13.8725994887        2.5776785807       21.7959607781
  N         9.8352980812        8.7896133470       18.4120402303
  C        10.2036170917        8.5543995021       16.0881544604
  C        10.1252961518        6.3923204869       14.9828381020
  H         9.8013961494        4.6411957147       16.2360699005
  H         0.6129331049        5.2228350260       31.0455117327
  H         2.1880704074        4.9882302040       30.2684868021
  H         1.6288487562        6.6004495143       30.5625680021
  S         4.2467394333        1.5131820384       34.5997376493
  C         4.4524891677       -1.2189113648       35.0408365030
  H         3.8994284334        3.3236980105       19.1516314056
  H         4.4744199803        2.9555951948       17.4552587135
  C         2.9093419049        1.7714933075       18.2169962197
  H        13.7453817499        3.7199341642       21.6880860221
  H        14.7673648043        2.3061827512       21.2596800131
  C        14.3303665850        2.5828891383       23.3090351170
  S         9.9772759433       10.2841972050       17.8462128234
  N        10.2724418366        9.9619147652       16.2639700145
  C        10.2949698567        7.8764920798       14.8799191360
  H        10.1050218148        5.8382743302       14.0395534197
  C         4.0219053970        0.7510459187       36.1597183180
  N         3.9756971791       -0.5888612417       36.1498236425
  O         4.6449158051       -2.4393947003       34.8664736887
  H         2.2721413286        2.5090670677       17.8650023996
  H         2.4898076239        1.4594871694       19.1556899547
  C         3.0177574799        0.5117450219       17.3888219387
  H        13.6456894661        3.1663711208       23.9532180365
  H        14.3674791811        1.6349681149       23.6874966130
  C        15.7596721153        3.0825491418       23.4685113502
  C        10.5308236521        8.5872705186       13.6850010975
  S         3.4529143071        1.6135076913       37.5539685267
  C         3.6885956033       -1.4005725760       37.3211364051
  H         2.2308125727        0.6882839655       16.6192227604
  H         4.0524525476        0.4816284644       16.8467636059
  C         2.7416292714       -0.7075198227       18.2188149008
  H        15.9388033225        3.5218190106       24.4505369868
  H        15.9458333149        3.8013946131       22.6364207699
  C        16.7997683505        1.9753796414       23.1412115680
  H        10.4412489641        9.6361746555       13.8040893441
  C        11.0805706663        8.2861721885       12.4657462465
  H         2.9395648121       -1.0352544114       37.9801619873
  H         3.2185788341       -2.3578441976       37.0488557616
  C         5.0162759505       -1.7053166738       38.0291403413
  H         1.6894725722       -0.6323068367       18.5638360575
  H         3.4432869689       -0.7859688418       18.9980946716
  C         2.9511589309       -1.9739623675       17.4047730912
  H        16.7313243693        1.3376343332       24.0305525673
  H        16.5704183939        1.3979995665       22.2428202382
  C        18.2245753982        2.4064221860       23.0367483711
  S        11.8407523948        6.7927548448       12.0291918407
  C        11.1178439209        9.3676801035       11.4242336262
  H         5.0726520303       -2.7142215509       38.2838633889
  H         5.8662575068       -1.3897689569       37.3628199583
  H         5.1238105014       -1.1236710059       38.9415943982
  H         2.6954935715       -2.8225759231       18.0759089976
  H         3.9813679496       -2.1562975145       17.1019468276
  H         2.4300705235       -1.8044794506       16.4243565187
  H        18.7318134708        1.4448539031       22.7692533612
  H        18.7392743904        2.6675298719       24.0000867025
  H        18.3797193563        3.1670880248       22.2084589241
  C        12.0748196168        7.6769270443       10.3986043710
  N        11.8319201228        9.0068349843       10.4017164921
  O        10.7223832057       10.5164395960       11.6781312995
  S        13.0370276396        7.0945477873        9.1214304706
  C        11.8888183582        9.8701241494        9.2060820243
  H        11.7758277257       10.8785868552        9.5101799503
  H        12.8781934713        9.9402670387        8.6756215387
  C        10.6647683497        9.7669400404        8.3029777346
  H        10.7069270811       10.5939930857        7.5937854589
  H        10.6666317620        8.7903352386        7.8699391561
  H         9.7947083231        9.9940478045        8.8686512496
  H         4.6839417925        1.9172918787       12.8806691715
  C         3.7677233886        2.4351792988       12.8142678224
  H         4.0665691119        3.4812921603       12.7392886255
  C         2.9103442668        2.0766437887       11.6101221522
  C         3.0148014886        2.0800796225       14.1270886867
  C         3.6574483652        2.4029130603       10.3109395061
  H         1.9778520636        2.6085703032       11.6839576478
  H         2.5816380701        1.0416927615       11.6188552559
  H         2.5101365156        1.1408690107       14.1333004311
  H         2.3908666458        2.9020269893       14.2856948047
  H         3.8168329425        1.9968011988       14.9229271972
  C         4.6474134569        1.3708987242        9.9363533156
  H         2.9825491455        2.3597402443        9.4141546338
  H         4.0524311834        3.4010276000       10.1187658585
  C         5.4674875932        1.5099842447        8.6014904420
  H         4.2501967547        0.3611928056       10.0862356774
  H         5.4170291254        1.2586946260       10.7472899887
  C         6.4237793534        2.7093770281        8.5137158984
  H         4.8092071887        1.5511839030        7.7346518674
  H         6.1422201166        0.6543380076        8.3762224587
  C         7.7261736341        2.2076276005        9.2078739469
  H         6.4976678626        2.7725035798        7.4278096366
  H         6.0719358437        3.7005010558        8.8474829271
  C         8.8709044402        3.1861531005        9.3754822361
  H         8.1212836082        1.3143622600        8.7160773010
  H         7.4296388589        1.7972586702       10.2197399364
  C         8.4602450022        4.4910927248       10.1598395144
  C         9.2797690684        3.9169883795        8.1240741887
  C        10.1343137671        2.4587849676        9.9328727171
  C         8.6396038504        5.6059732588        9.3621671865
  C         7.9269573499        4.8388066846       11.4303948065
  C         9.0931895012        5.2589710691        8.0867990588
  C         9.7553817258        3.3681042267        6.9514544671
  H         9.8704298156        1.9370426709       10.8686546031
  H        10.3812948216        1.6467134802        9.2968908963
  C        11.4120491763        3.2607709837       10.2314388352
  S         8.1379372930        7.0794608890       10.1034517532
  C         7.8211227262        6.1856444297       11.5640362181
  H         7.7998595370        4.0962196175       12.1209570770
  C         9.4775253753        5.9328511367        6.9515342029
  H         9.8477131254        2.2698015466        6.9501293698
  C        10.0898442234        4.0336338843        5.8286373374
  H        10.9921757270        4.1824040753       10.6506339766
  H        11.9299329846        3.5725311737        9.3375758805
  C        12.3953841857        2.7792384642       11.2829791611
  C         7.3981175924        6.7663537549       12.8307315293
  C        10.0484992514        5.3875793526        5.7700930770
  H         9.3877602600        6.9732871218        6.9787809210
  C        10.4485752854        3.6094253111        4.5753767760
  H        13.3710322642        3.2673616718       11.1337329010
  H        12.5773071244        1.6665926003       11.1839959367
  C        11.8854645817        2.8187322717       12.7372033358
  C         7.3603223045        8.1410588369       13.1432195959
  C         6.8571964172        5.9316644184       13.9114747539
  C        10.5401639979        6.0655756589        4.5007277275
  C        10.7169829910        4.6952260967        3.7793903099
  S        10.7606789550        2.0384196899        3.8272304889
  H        11.1961017137        3.6253907744       12.8035742478
  H        11.4067271084        1.8759755557       12.9754009859
  C        12.9143459620        2.9823413047       13.8164587562
  N         7.7574663737        9.1696473961       12.2700894008
  C         7.2053884267        8.6592755635       14.4223095438
  C         6.6297527784        6.4109377587       15.1333083938
  H         6.5931776809        4.9052045047       13.7190282494
  C        11.8727128758        6.8321992316        4.7117220511
  C         9.3996898542        6.8457920828        3.6618266754
  C        11.2126228702        4.3204066307        2.5195579422
  C        11.2192580494        2.9344728630        2.3895365293
  H        12.4840180564        3.7068788937       14.5967041731
  H        13.7949101322        3.4731086341       13.3698645014
  C        13.3503655392        1.7832909972       14.6133787730
  S         7.7309933424       10.6187346128       13.0648244087
  N         7.1711567779       10.0828693230       14.4634787922
  C         6.9034180400        7.8361150276       15.4660538420
  H         6.2329683872        5.6371884348       15.7956968431
  H        11.6074017741        7.4160258888        5.6474771791
  H        12.0770067661        7.4960438473        3.8563201657
  C        13.0504524094        5.9860605530        4.9463402456
  H         9.1817898871        7.7098298781        4.2922534646
  H         9.7513975064        7.3243282112        2.7101870545
  C         8.1325517544        6.0606318735        3.3008155605
  H        11.3841009011        5.1085802721        1.8362977932
  C        11.5466022304        2.2248577211        1.1769032146
  H        12.8908281259        0.7985354387       14.2923842617
  H        14.4675528020        1.6735542008       14.5471667705
  C        13.0606303593        1.9147318171       16.1218087687
  C         6.7954492395        8.4308438406       16.7544172961
  H        12.9175979413        5.3311255665        5.7522330649
  H        13.3597230974        5.3257363900        4.1238008105
  C        14.1849621634        6.9001997569        5.2959514474
  H         7.7674422352        5.7968046999        4.2706719245
  H         8.3514391591        5.2292563920        2.6823479797
  C         7.1209569117        6.9501993650        2.5137103593
  C        11.6749379192        0.8078220628        1.0176581909
  C        11.9043771650        3.0379696081       -0.0584981278
  H        13.4996054017        2.8310865565       16.6443002700
  H        13.4839759083        1.0011673146       16.5942598950
  C        11.5477486105        1.9054336101       16.3911262028
  H         6.8561508954        9.5481445335       16.7977908873
  C         6.4292969208        8.0134256601       17.9550813313
  H        14.0368130516        7.5238345648        6.2096888897
  H        14.4664143479        7.4348863689        4.4426857753
  C        15.5103461289        6.1338043992        5.5326184792
  H         6.7815281882        7.7154916644        3.1996706519
  H         7.5746100370        7.4587045097        1.6879494838
  C         5.9272007800        6.2200821685        2.0612821829
  N        11.4139231125       -0.1187096377        2.0185491141
  C        12.0027846811        0.1980654844       -0.1994082377
  C        12.1644819348        2.4456183047       -1.2629845327
  H        11.9584326641        4.0914561516        0.1364185266
  H        11.2391464060        0.9783660714       16.7803039504
  H        11.0096535653        2.0760717588       15.5503419817
  H        11.1764493957        2.7455066646       17.0133527426
  S         5.9575514861        6.4593783208       18.2449389923
  C         6.5028485069        8.9199336134       19.0933733259
  H        15.5144721676        5.3403039361        4.8310475432
  H        16.3109689701        6.6422939191        5.0898236183
  C        15.7914300545        5.6815575750        6.9861184668
  H         5.5717264473        5.7530205498        2.9938959853
  H         6.3467825369        5.3297715083        1.4640082035
  C         5.0228527508        7.1298146919        1.3175655706
  S        11.5892957811       -1.6156651002        1.3271058360
  N        12.0835321212       -1.2040303961       -0.1572120445
  C        12.1772188734        0.9329104828       -1.4353864513
  H        12.4292755159        3.0585043907       -2.0990194598
  C         5.7147809419        6.9508590979       19.9251158714
  N         5.9398374730        8.2579708645       20.1583470654
  O         6.9447659186       10.0675552806       19.0479983453
  H        15.8185638171        6.4852484655        7.6990642586
  H        14.9404449438        5.1264529768        7.3242182992
  C        16.9300176221        4.6964493972        7.1183360875
  H         5.6257045435        7.5481178632        0.5700956164
  H         4.2553079786        6.6874641653        0.6759826321
  C         4.3443430410        8.2303336205        2.1004604084
  C        12.5333040430        0.2066384630       -2.6570089478
  S         5.1098677128        5.8498636944       21.1753255242
  C         5.6213342770        8.9017317967       21.4496250794
  H        16.7147162758        4.1430312657        8.0127650574
  H        16.8460578099        4.0112325350        6.3260700947
  C        18.3237738055        5.3832635671        7.1833803873
  H         5.0277527812        8.7066178162        2.8331103425
  H         3.4924900320        7.7361757898        2.6892532487
  C         3.6702813351        9.2706333689        1.1606840320
  H        12.5011897654       -0.8841157890       -2.5649256278
  C        13.0255461571        0.5305546282       -3.8773357121
  H         4.7854247542        8.2854196614       21.9154861846
  H         5.4501001358       10.0163919853       21.3684854264
  C         6.8748139649        8.8383200399       22.3533609619
  H        18.6907985107        4.8813976444        8.0578607507
  H        18.0437711812        6.4096990381        7.4040713247
  C        19.3080889552        5.1925680170        6.0546655864
  H         3.4970794094        8.9764530621        0.1686454266
  H         2.6612142715        9.5849209652        1.6127851473
  C         4.4610918754       10.5376649262        0.8730157114
  S        13.5769559427        2.0752912889       -4.4295897782
  C        13.2155944512       -0.5585537442       -4.9163393405
  H         7.1720834346        9.8458296911       22.8035592047
  H         7.8142996112        8.5374745176       21.9106964533
  H         6.7686877507        8.1416956051       23.1930972407
  H        20.3004477457        5.5925218243        6.2372546199
  H        19.3317029202        4.1851469280        5.6912514693
  H        18.8956510067        5.7307818748        5.2351445956
  H         5.3307117268       10.6492492477        1.4769030837
  H         4.8688907545       10.5555174164       -0.0794555321
  H         3.8184246444       11.4282521435        0.9668642747
  C        13.9271119914        1.2799456982       -5.9685954786
  N        13.8120239265       -0.0657373275       -5.9631421542
  O        12.9566830220       -1.8050896952       -4.6436956848
  S        14.8006932338        1.9538438345       -7.2897304420
  C        14.3226006907       -1.0431168366       -7.0072609569
  H        14.4712418005       -2.0481133738       -6.6129426913
  H        15.2892889536       -0.5882392671       -7.2964000727
  C        13.2142756092       -1.0963106254       -8.1247374370
  H        13.4726332799       -0.4484767548       -8.9701491699
  H        12.2727211505       -0.8581792820       -7.7686034909
  H        13.2210544088       -2.1235657019       -8.4510710288
