352
 i =    93700, time =    46850.000, E =        99.9240476799
  H        11.7554813205        7.1687885946       32.9051589902
  C        11.5563330166        6.1714764037       32.6634122328
  H        12.4857054567        5.6304370947       32.4016175563
  C        10.4045507800        6.0408068754       31.6251599673
  C        11.1921674655        5.3541688963       33.9616960761
  C        10.9452881381        5.7909353475       30.2591717461
  H         9.8704974392        5.1522916059       31.9183225308
  H         9.7263503477        6.8281816049       31.7316869810
  H        12.1236468727        4.9791583020       34.5150846351
  H        10.6076034637        5.8619445250       34.7246955789
  H        10.7011250176        4.3786120602       33.7037884528
  C         9.8785594873        5.8121886069       29.1967592987
  H        11.3495991839        4.7562461219       30.2743057286
  H        11.7236097220        6.4612201122       29.8908935033
  C        10.4385625812        5.6158676232       27.7945761384
  H         9.1926389165        4.9822679849       29.3437038252
  H         9.3773393425        6.7631244674       29.2970331587
  C         9.4682005581        4.9770117292       26.8631457715
  H        11.3447971173        5.0135645293       27.7724179556
  H        10.6547877285        6.5272054652       27.3344118735
  C         8.2344966754        5.8441906855       26.5690345063
  H        10.0187755575        4.8103853116       25.9212834444
  H         9.2392927300        3.9571934402       27.1817389269
  C         7.0970365381        5.1099475838       25.7437025429
  H         7.8824417238        6.3277011887       27.4262365354
  H         8.5894647316        6.6264755816       25.9534430242
  C         6.7651163339        3.7722596903       26.4283086210
  C         7.5282860938        4.4529214593       24.4745165968
  C         5.7739268827        5.8980385687       25.6207496805
  C         6.8976034819        2.6387750011       25.6239216630
  C         6.2923678720        3.4315507979       27.6829400115
  C         7.3756005336        3.0914037979       24.3300193539
  C         8.0315374779        5.1315490647       23.3567816835
  H         6.0290611828        6.9436197129       25.2681604786
  H         5.3027998700        6.1643002982       26.5909559288
  C         4.6155153808        5.3090983940       24.7835466669
  S         6.5862982160        1.1662457746       26.4229687732
  C         6.0820686429        2.0938296580       27.7646604639
  H         6.1697881468        4.1745705329       28.4450065997
  C         7.7342724690        2.5238068294       23.1483100491
  H         8.1104423269        6.1830114335       23.4069560699
  C         8.4083781053        4.5105567667       22.1850612701
  H         4.7473556035        5.2949237497       23.6884781676
  H         4.5754937221        4.2584861269       25.1228046199
  C         3.2033034859        5.9447292894       24.9544975019
  C         5.7048520674        1.4350266310       29.0885116085
  C         8.2272831238        3.1872580449       22.0044647533
  H         7.5534608888        1.4776859491       23.2292350978
  C         8.8559071794        4.9547035059       20.9309819708
  H         2.5303901233        5.3033314063       24.3627323839
  H         3.2400737174        6.8746084246       24.3198575184
  C         2.6627489691        6.1060391119       26.4211707703
  C         5.8892064713        0.0628104804       29.4666199270
  C         5.1294667964        2.2764862011       30.1839504127
  C         8.6649986226        2.5464571465       20.6733683926
  C         8.9729826697        3.9205670552       20.0309088594
  S         9.1721832069        6.4785964165       20.1766362092
  H         1.6443954692        6.5020522303       26.4362930298
  H         3.3167637696        6.8329234023       26.9047842298
  C         2.7921562916        4.8524448217       27.2687622309
  N         6.2625468448       -0.9195915300       28.5836560173
  C         5.5079345549       -0.4655040878       30.7106336303
  C         4.8114800961        1.7536844697       31.4445229779
  H         5.1742923240        3.3615543543       30.1040291422
  C         7.5375182201        1.8212520120       19.8912197144
  C         9.8877079354        1.6315081638       20.8056515281
  C         9.3666365854        4.3191072001       18.7037040854
  C         9.5643671900        5.6996471719       18.6941278977
  H         2.6412171036        3.8933412686       26.7466241215
  H         3.8114188920        4.7365434553       27.7153222568
  C         1.8320358307        4.9387847251       28.4925463148
  S         6.3093689571       -2.3638791881       29.3564426861
  N         5.7434027431       -1.8113462831       30.7664842121
  C         5.0991225991        0.3484258705       31.7252524471
  H         4.5152288385        2.4125830915       32.2135816927
  H         7.3378599559        1.0026728624       20.6182781761
  H         7.9475177458        1.4279574045       19.0189447374
  C         6.3132236774        2.6216046138       19.4675164863
  H         9.9786646932        1.1100774538       19.8323472011
  H         9.7132101517        0.9536961796       21.6292509535
  C        11.0980761239        2.4525482774       21.2788648266
  H         9.6572011900        3.5531148059       18.0544322881
  C        10.0114710528        6.3818991475       17.4413493368
  H         1.5392825449        3.9993234946       28.8936833505
  H         0.9222537700        5.3848404601       28.1206072702
  C         2.4057180983        5.7263779463       29.6384772206
  C         4.9014452205       -0.2466277732       33.0114327115
  H         6.5392499079        3.3649254604       18.7297927283
  H         5.8348309933        3.1245131343       20.3077228951
  C         5.3810536564        1.6467695729       18.7458734908
  H        10.8307289895        2.9051819184       22.2032299607
  H        11.3951023424        3.3208081066       20.6683082929
  C        12.4176773271        1.6843248583       21.5199924829
  C        10.1087106464        7.7878247609       17.2896813541
  C        10.4367089037        5.5974936355       16.2814729139
  H         3.4223967209        5.5594103114       29.7887537025
  H         2.2357884425        6.7811559271       29.3913579036
  C         1.5516091963        5.5479036506       30.8908223584
  H         5.2232152838       -1.3158948090       33.1388051457
  C         4.5434241923        0.1994063886       34.3070918273
  H         5.1752741893        0.9712388887       19.5115499865
  H         5.8091008508        0.9804817700       17.9357544317
  C         4.1474495879        2.4202066254       18.3024340691
  H        12.3462050094        0.8912350197       22.2597843470
  H        12.7432336083        1.2450002555       20.5850031627
  C        13.4440732047        2.6490605368       22.0568530021
  N         9.8305381122        8.6951630255       18.1999375316
  C        10.4271768488        8.4266396572       16.1219110805
  C        10.7322259853        6.2353463159       15.0441533100
  H        10.3379464887        4.4986608540       16.3521855262
  H         0.5329003101        6.0157719948       30.7656600072
  H         1.4006559507        4.5172222462       31.2716928675
  H         2.0888597519        5.8320567703       31.8435586667
  S         4.2281990411        1.8438297621       34.6535595800
  C         4.5237380946       -0.7114115735       35.4916393216
  H         3.7520926832        3.1435521621       19.0442156462
  H         4.5669858497        3.0826784792       17.5984954611
  C         3.0504515016        1.6466111128       17.5902369690
  H        13.0139441545        3.4386930343       22.6713316282
  H        13.8570310496        3.0120809880       21.0937333349
  C        14.7161821831        2.0997486283       22.8014189335
  S         9.7675143792       10.1984595210       17.6444612679
  N        10.3249195362        9.8269524435       16.1467024553
  C        10.7386915706        7.7299347581       14.9295109196
  H        10.8546967249        5.5073051753       14.1731589193
  C         4.0561405998        1.3282908947       36.3099731274
  N         4.1355582369        0.0040467554       36.5017261460
  O         4.7769261405       -1.8925012038       35.3506924943
  H         3.3492066750        1.0801698545       16.7053032068
  H         2.3740625040        2.4847078298       17.3041000241
  C         2.2884527422        0.7152166762       18.5642420696
  H        14.5039747929        1.4700972512       23.6919391518
  H        15.3144471698        1.5641430294       22.1247069888
  C        15.7428450854        3.1942195643       23.1506900480
  C        10.9511314529        8.4515367678       13.6717437551
  S         3.6717933550        2.2871951338       37.6888391758
  C         4.0833752320       -0.7047403127       37.8157475873
  H         2.7681612676        0.8401930154       19.4782768828
  H         1.2832098680        1.1031875503       18.4830619022
  C         2.0771132994       -0.7422777691       18.0620811814
  H        15.8195994857        3.1500770988       24.2104228963
  H        15.3327649864        4.1474169097       22.9061545306
  C        17.1184531561        2.9204277683       22.4149657933
  H        10.8831388479        9.5294316349       13.7664886658
  C        11.3477491401        8.0553525036       12.4096798237
  H         3.4354756035       -0.2037351244       38.5621448907
  H         3.7769731107       -1.7431583756       37.8096056716
  C         5.4086287168       -0.7364554007       38.6268788507
  H         3.0683779299       -1.2209037441       17.9854815375
  H         1.5384202406       -0.7975908509       17.0822114860
  C         1.0345786887       -1.4763118055       18.9597102754
  H        16.9778746857        2.4400838039       21.4460744669
  H        17.5650623924        3.8828438435       22.2442393432
  C        18.0563259999        1.9402610733       23.1926248181
  S        11.8603076271        6.5148523075       11.9822296235
  C        11.5979439929        9.0132301163       11.3232543478
  H         6.1624590402       -0.1058769491       38.1793886836
  H         5.2780128185       -0.4427541453       39.7130600122
  H         5.8228094289       -1.7394753751       38.7019129947
  H         1.3106100845       -1.3736518919       19.9925340240
  H         0.8993354199       -2.5838765819       18.8042284142
  H         0.0495724698       -1.0057407613       18.6868959172
  H        18.8102353727        1.5426151972       22.5400486490
  H        17.5564399523        1.1026871378       23.6524687874
  H        18.4126413814        2.4989742355       24.0438967603
  C        12.4079780594        7.1098772434       10.4352741723
  N        12.2377877313        8.4694941170       10.2990090667
  O        11.3005216851       10.2224301326       11.4220637920
  S        13.1614656249        6.1914430299        9.1006890418
  C        12.4320918608        9.2193607352        9.0674617212
  H        12.5142204560       10.2631751309        9.2590658686
  H        13.3100020425        8.9301128156        8.4755700665
  C        11.2107977640        9.0183929085        8.1295621841
  H        10.3080864293        9.5787927274        8.3861288840
  H        11.4165213757        9.0324605499        7.0831355069
  H        10.8730204223        7.9842723594        8.3178994212
  H         4.2166153464        1.4418695414       12.3261619652
  C         3.6110044410        2.2740804813       12.2227117310
  H         4.1824082683        3.1635483477       12.1824116221
  C         2.7275556436        2.0165301800       10.9813898714
  C         2.7543258852        2.3853420746       13.4991554933
  C         3.4231703555        2.2234576214        9.7055233687
  H         1.8491939592        2.5909507510       10.9512525447
  H         2.2711637714        0.9596945387       11.0054269794
  H         1.9216318455        2.9491971605       13.2071441102
  H         3.3111267059        2.9438239791       14.2154233366
  H         2.3596701226        1.4947640524       13.9792034933
  C         4.5570184975        1.1814341795        9.4646891306
  H         2.6627681139        1.8856331325        8.9325916363
  H         3.7439180990        3.2249618319        9.5801641039
  C         5.4436284256        1.5224943683        8.2075801321
  H         4.1584225813        0.2014506665        9.2256749887
  H         5.2137814300        1.0550139036       10.2698320267
  C         6.6473881449        2.4999939453        8.4301456831
  H         4.6873911981        1.7852181384        7.4977623835
  H         5.8444072751        0.5620252694        7.8521230545
  C         7.8524951904        1.7386046328        9.0022683016
  H         6.8974081474        2.9293568936        7.5231350645
  H         6.3868213173        3.3704437294        8.9970477413
  C         9.0666948715        2.5764562392        9.2183510068
  H         8.1347967639        0.8739101343        8.4226307484
  H         7.4935057879        1.3515241098        9.9293807352
  C         8.6957716554        3.9044451912        9.8984232053
  C         9.6378268284        3.3371916133        7.9760496832
  C        10.3154607088        1.9319479208        9.9325759541
  C         9.0514946215        5.0158609667        9.1467652390
  C         8.1487253129        4.2561889788       11.1603655895
  C         9.6380756994        4.6925155765        7.9309435439
  C        10.0920373189        2.7755702844        6.7713542581
  H         9.9157524200        1.5799434377       10.8670195281
  H        10.5631687150        1.1400708787        9.2491034885
  C        11.4491367741        2.9038325287       10.4803784916
  S         8.4817016379        6.4248585479        9.7999252554
  C         8.0457279747        5.6467019150       11.2407205969
  H         8.0187584355        3.5032483826       11.8804320238
  C        10.1076195584        5.3884777123        6.8076409117
  H        10.1211669944        1.7449124108        6.6527952246
  C        10.4925575724        3.4366684871        5.6409772209
  H        11.0452980457        3.5416364267       11.3133085377
  H        11.8329595896        3.5675963949        9.6708189618
  C        12.6748452699        2.1808316749       11.0702831661
  C         7.6008846280        6.4034581199       12.4586052775
  C        10.4224335761        4.7955955014        5.5618818047
  H         9.9274268162        6.4264546372        6.8242306147
  C        10.8955481646        2.9801708399        4.3469963115
  H        13.5356036406        2.7002602943       10.5188278791
  H        12.6631127885        1.0586138602       10.8491723461
  C        12.8354097701        2.5145810649       12.5284237543
  C         7.7176576580        7.8359827877       12.7070571389
  C         7.1075061516        5.6209013820       13.5974544321
  C        10.9474087734        5.4757735301        4.3093448612
  C        11.1596847584        4.0667778108        3.5778631515
  S        11.2024274274        1.3995128928        3.6451995341
  H        13.7909171040        2.0609633135       12.7080915313
  H        13.0140604350        3.6190608899       12.6378746218
  C        11.9729926079        1.6930569153       13.4899838974
  N         8.0895684017        8.8626556686       11.7768226768
  C         7.4142493388        8.3586712771       13.9150011013
  C         6.8195072304        6.2162880690       14.8120246198
  H         6.9600098399        4.5612011327       13.5206345841
  C        12.2809203768        6.2548984556        4.5116901187
  C         9.9048067263        6.3493419182        3.5820755647
  C        11.6008196277        3.6300720015        2.3313378667
  C        11.6106730306        2.2412164784        2.2589159593
  H        12.2938291067        0.6787274486       13.5384461105
  H        10.9576971275        1.7490202754       13.0830533298
  C        11.9364142815        2.1183910395       14.9154658417
  S         8.1208125719       10.2851278283       12.5992693329
  N         7.5424880056        9.7682005928       14.0288600359
  C         7.0664714393        7.6345667929       15.0564948749
  H         6.4466477176        5.5069973373       15.5133717983
  H        12.0466396827        7.0381230837        5.2512306473
  H        12.5393244604        6.7577084500        3.5269636389
  C        13.3635704119        5.4335271973        5.1185487298
  H         9.7766985547        7.3458254756        4.1171804745
  H        10.2300980655        6.5204993882        2.5642938615
  C         8.5325336539        5.6757370743        3.5075019749
  H        12.0514020082        4.3040038315        1.5715214064
  C        11.9625308570        1.4860400619        0.9738655813
  H        11.6285910200        3.1214166243       15.1344708409
  H        11.2014074771        1.4536577774       15.4515282391
  C        13.2203538303        1.8441290940       15.7292670672
  C         6.9272173878        8.2879724085       16.2848776786
  H        12.8547991392        5.0008932361        5.9677226773
  H        13.7713747891        4.6142155955        4.4807398721
  C        14.6019947840        6.1792638756        5.5204275687
  H         8.1343371543        5.4432452013        4.5610374221
  H         8.6151807037        4.7135211035        2.9749761654
  C         7.5369426098        6.5986979615        2.7594566508
  C        12.0369508730        0.0975627589        0.7992071332
  C        12.3231801672        2.2365153078       -0.2626505124
  H        14.1473342501        2.3280029847       15.3151276428
  H        13.3958467169        0.7697057291       15.7966957716
  C        13.1120539944        2.3503311420       17.1547476160
  H         7.1935906224        9.3633661447       16.2580273706
  C         6.5618849290        7.8975464611       17.5413791995
  H        14.3743758542        6.9116254827        6.2637932406
  H        14.9344026507        6.6898173118        4.6073238210
  C        15.7555566829        5.3797151286        5.9629130412
  H         7.0906198098        7.3094611810        3.4870492925
  H         8.1325299890        7.1372850618        2.0738618897
  C         6.4208664239        5.8733653524        2.0349070145
  N        11.6788968196       -0.8216740352        1.8302150200
  C        12.3320683234       -0.5074596132       -0.3635600996
  C        12.5583639614        1.6590462335       -1.4705978925
  H        12.1745581948        3.2741345522       -0.2641437451
  H        12.4136957872        1.6921138846       17.7293993920
  H        12.6506098878        3.3270239717       17.1120511920
  H        14.0613030570        2.3990399585       17.6008700724
  S         6.1796382993        6.3171437440       18.0559110164
  C         6.4177767619        8.9961668018       18.5587691311
  H        15.3778321674        4.5513093692        6.4424660808
  H        16.2709845343        4.9492202862        5.1278012771
  C        16.7487109603        6.1049401338        6.7563122581
  H         6.1741793603        4.9334647620        2.5849495507
  H         6.7983265992        5.5026960674        1.1415351989
  C         5.2848178118        6.7974384204        1.6568729270
  S        11.7037991207       -2.3054093784        1.1910248500
  N        12.3240092570       -1.8725566057       -0.2650802011
  C        12.5780941027        0.1818454777       -1.5865476752
  H        12.6080796858        2.2315561537       -2.3269435304
  C         5.8852103876        7.0668550077       19.6252338735
  N         6.0162407616        8.4205173653       19.6708779399
  O         6.4806541994       10.2138757235       18.3214418620
  H        17.2344162196        6.9041389001        6.1366054027
  H        16.1777221094        6.6310987343        7.5856362696
  C        17.7528273820        5.1139677149        7.4111306633
  H         4.5781593362        6.1499952440        1.1214279392
  H         4.7920530882        7.1151234588        2.5293778523
  C         5.6342719361        7.9939957228        0.7610802224
  C        12.7035426856       -0.5323128304       -2.8654944291
  S         5.5045322779        6.1888510453       21.0992855917
  C         5.9098506347        9.1747633947       20.9293374046
  H        17.3987415256        4.8465321375        8.4047666695
  H        17.7439275912        4.2078502676        6.8580405443
  C        19.1393614516        5.6284974858        7.4549209600
  H         5.9017097972        7.6081514242       -0.2149183821
  H         6.5301788993        8.5083081738        1.0397275022
  C         4.5670528779        9.1291688915        0.6915126357
  H        12.4512595131       -1.5681026149       -2.7779918210
  C        13.3744872398       -0.1840275029       -4.0325718917
  H         5.0084172546        8.8480348677       21.3749056877
  H         5.6973946005       10.2098501650       20.6257121538
  C         7.1076474988        9.1053535217       21.8935547060
  H        19.5000348633        5.3213805063        8.4422273175
  H        19.0564436154        6.6897788451        7.4281658088
  C        20.0919461346        5.3243545462        6.2879824784
  H         4.6207531505        9.8043237129       -0.1478656941
  H         3.5932065898        8.6371187023        0.7604111900
  C         4.6819812397        9.9684190521        1.9908984906
  S        14.0273667133        1.4105752236       -4.3940426366
  C        13.3026470044       -1.0024849869       -5.2201612421
  H         6.7612484182        8.4279009823       22.7203582989
  H         7.4227103535       10.0283767027       22.4420355730
  H         7.9306898804        8.5668948500       21.4212331517
  H        20.1487124760        4.2660300925        6.0878128951
  H        19.7818423611        5.9713669563        5.4857521535
  H        21.1081349618        5.4777820316        6.6191500579
  H         4.7749446592        9.2661934696        2.7816690478
  H         5.5991396209       10.5183149400        1.8992090557
  H         3.8273384352       10.6132680687        2.1433888618
  C        14.4163529694        0.7604893930       -6.0160648573
  N        14.0162008043       -0.5246005437       -6.2740037444
  O        12.7432883280       -2.1046276138       -5.1339727535
  S        15.3585688890        1.8119671274       -7.1179874062
  C        14.1326502860       -1.3072646329       -7.4839735815
  H        14.6969748037       -2.2058592792       -7.3324930608
  H        14.7871713032       -0.8400042508       -8.2618003851
  C        12.7302373820       -1.4209929606       -8.1722736143
  H        11.9158415113       -1.6989612623       -7.5190404203
  H        12.7413602197       -2.2274854235       -9.0051665858
  H        12.4719250045       -0.5300660551       -8.7101806955
