352
 i =    59000, time =    29500.000, E =        98.6285010877
  H        10.1901040317        4.0097335094       32.0065185361
  C        10.0200272938        5.0535485247       32.2726514086
  H         8.9239092100        5.1477650398       32.2803476462
  C        10.8681406839        5.9671206192       31.3590270939
  C        10.5988619933        5.0681025705       33.8229428580
  C        11.0865327887        5.4040090560       29.9979884580
  H        10.3064062658        6.8260972414       31.3481564678
  H        11.8657511263        6.1721910659       31.8091331437
  H         9.9882950441        4.4221872555       34.3930371579
  H        11.6200942769        4.8394181062       33.7431118318
  H        10.5548867281        6.0348993433       34.3076396075
  C         9.9121574963        5.1890867071       28.9889844061
  H        11.5698297838        4.4325383585       30.0378120211
  H        11.8586187360        6.0307667954       29.5053884581
  C        10.4530467009        5.0794549142       27.5432675449
  H         9.3583193137        4.2658241073       29.1851972925
  H         9.2126186327        5.9737179609       29.0905117605
  C         9.3907137170        4.5105807596       26.5527066109
  H        11.3635863888        4.4630046323       27.4359550346
  H        10.7668713441        6.1308084455       27.2592779630
  C         8.0889900346        5.4887026751       26.4258546876
  H         9.8277505763        4.3440397670       25.6048124670
  H         9.1971038011        3.5741566056       27.0243763243
  C         6.9869664510        4.7893078798       25.6671417393
  H         7.7428576814        5.7264316734       27.4265275756
  H         8.4624151987        6.3766521965       25.8812206943
  C         6.6651595510        3.5138189563       26.3308502474
  C         7.4358957471        4.1389153234       24.4816671001
  C         5.7801413773        5.7122272298       25.4551943247
  C         6.9280063253        2.4152719039       25.5596018047
  C         6.2843808871        3.1654858046       27.6659831478
  C         7.3678042736        2.7839748959       24.3065635981
  C         7.8665914636        4.8580282203       23.3721030885
  H         6.0718445183        6.5924191379       24.8123177420
  H         5.5207550401        6.1761938390       26.3352687466
  C         4.4645141063        4.9475185307       25.0366849834
  S         6.7803934871        0.9996514185       26.4765399882
  C         6.1592491402        1.8077139254       27.8240807563
  H         6.0083713171        3.8663149307       28.4198777928
  C         7.8379139355        2.2080915694       23.1789033021
  H         7.8571233947        5.8928174012       23.5857528415
  C         8.1857827768        4.2715833576       22.2126694066
  H         4.6997148305        4.5837286160       24.0240112365
  H         4.1614488677        4.1574364125       25.7499401917
  C         3.2204316880        5.8433069475       24.9974938345
  C         5.6371903833        1.0927824656       28.9915468286
  C         8.2378013821        2.9257700137       22.0376416648
  H         7.9200513163        1.1172340170       23.0805683968
  C         8.5697113295        4.7263248168       20.9474768244
  H         2.4383332726        5.3192356205       24.3861981697
  H         3.5502379188        6.7148384014       24.3597800011
  C         2.5982017605        6.1183862331       26.3521358007
  C         5.5087099284       -0.2964711172       29.1189997443
  C         5.4404889368        1.9307707526       30.2337300425
  C         8.5895080230        2.2516558897       20.7728380203
  C         8.7364071788        3.6302239907       20.0836576584
  S         8.9015256252        6.2673451164       20.1951228906
  H         1.9724295245        6.9699526200       26.2939805460
  H         3.3090050999        6.5362045586       27.0442934277
  C         1.7670119693        4.9663266315       26.7924742071
  N         5.8687746665       -1.1994552683       28.0943243366
  C         5.1988893392       -0.9242652561       30.3136030676
  C         5.1976912572        1.2705244888       31.4493455788
  H         5.6172351699        3.0039405231       30.3404986232
  C         7.3725818615        1.4319299073       20.1347774250
  C         9.8336561414        1.4609783451       20.8200596796
  C         9.1861807096        4.0660121870       18.8431395464
  C         9.2098622254        5.4096726264       18.7585802248
  H         0.9921628114        4.7531136577       26.0217294008
  H         2.2886751740        3.9928636689       26.9365340825
  C         0.8538771314        5.2994323797       27.8603213580
  S         5.7129545943       -2.7108742910       28.6960875583
  N         5.2764291273       -2.3187490508       30.2489575044
  C         5.0582124796       -0.2198969801       31.5799534784
  H         5.1710871676        2.0412146819       32.2401259992
  H         7.1093561215        0.5029862239       20.6719129671
  H         7.7699244378        1.1017876105       19.1871237773
  C         6.0432052110        2.2347189917       20.0795159226
  H        10.1078756695        0.9338493779       19.9100948888
  H         9.5602289027        0.6002253647       21.3990591838
  C        10.9939920311        2.3356327123       21.4379163358
  H         9.5968441388        3.2664654625       18.2598869023
  C         9.6218046983        6.2585199706       17.5439865848
  H         0.0561331336        4.4700087832       27.7733015716
  H         0.4175189593        6.1903673356       27.6724898714
  C         1.5182336064        5.4282586497       29.2040076257
  C         4.8678004570       -0.9619529982       32.7637285483
  H         6.2068144590        3.2221499193       19.6883362265
  H         5.5125182389        2.2958363539       21.0313742362
  C         5.1377025386        1.5263943468       19.0794521264
  H        10.7490719533        2.8230027089       22.3898245731
  H        11.1658906769        3.1940971268       20.8536573741
  C        12.2605628420        1.5271853669       21.5917113942
  C         9.7576268068        7.6731508679       17.4354721263
  C         9.8731304807        5.5739020818       16.2687008506
  H         2.1539974586        4.5303146712       29.4275186259
  H         2.2636093787        6.1843684385       29.1863930344
  C         0.6894014007        5.5551344926       30.4969631406
  H         5.0571704305       -2.0223528122       32.8075175442
  C         4.4734129605       -0.5827529109       34.0062046071
  H         4.5649603157        0.7571666791       19.6966948254
  H         5.6645296137        0.9152648163       18.3395652186
  C         4.0826998987        2.4848733764       18.4245725050
  H        12.1219258265        0.8605286351       22.4347532862
  H        12.3648992810        0.8201400141       20.7432804997
  C        13.4610362551        2.4119921395       21.6528404476
  N         9.5206770422        8.6654766272       18.3965607022
  C        10.1984634166        8.2270605445       16.1713593375
  C        10.3653333395        6.0632855597       15.0543412720
  H         9.6858811850        4.4970229838       16.3323412894
  H         1.2924702859        5.0824922094       31.2551453032
  H         0.6238359686        6.6490449866       30.7926184057
  H        -0.3049385548        5.0660021633       30.5349288517
  S         3.9411667487        1.0063963810       34.4507700863
  C         4.5352247732       -1.5581367977       35.1088623097
  H         4.0558123710        3.4545762895       18.9560030054
  H         4.4479302455        2.7961553895       17.4281902492
  C         2.7148538152        1.8736059010       18.3711485217
  H        13.0566412569        3.0908990732       22.4200799248
  H        13.6817003133        2.9511878002       20.7517534933
  C        14.7607425884        1.7489261857       22.0739581261
  S         9.7799509381       10.1078182786       17.6646022138
  N        10.3439107455        9.6054128878       16.2711203575
  C        10.5949876367        7.4839755789       14.9865960281
  H        10.4959370385        5.4102956384       14.2316430152
  C         4.0759625183        0.3948350073       36.1046331237
  N         4.2017229369       -0.9053114312       36.2729176577
  O         4.8168171438       -2.7628287605       34.9880515258
  H         2.0139514066        2.6336691066       17.9546182389
  H         2.3628454637        1.6429187017       19.3777060941
  C         2.6135926656        0.6460826388       17.4707606901
  H        14.5622029454        1.0679741575       22.8858468565
  H        15.1421840974        1.2068374452       21.2320670020
  C        15.7467937176        2.8298052403       22.4779826775
  C        11.0191898332        8.1727413785       13.8021058372
  S         3.5195190800        1.3386691795       37.4365292020
  C         4.3339276745       -1.5578523987       37.5771551145
  H         1.8315315190        0.7569634775       16.7639010046
  H         3.5619184373        0.6134138756       16.9534210135
  C         2.5300733872       -0.6958591134       18.2842951270
  H        15.6305735794        2.9749740768       23.5380024241
  H        15.4329558421        3.7338156587       22.0613969846
  C        17.2117306384        2.5317148541       22.3017620018
  H        10.7911603190        9.2374911718       13.7398220209
  C        11.4434534999        7.7573019246       12.5371609680
  H         3.7476573334       -1.1261315970       38.3964388654
  H         3.9641177952       -2.5816170389       37.5013441087
  C         5.8428269334       -1.5101468396       37.9639799504
  H         2.4847720200       -0.4357027572       19.3353624091
  H         3.4420444777       -1.2379273194       18.1937493580
  C         1.4351098958       -1.5224248616       17.7413462611
  H        17.4159585433        1.9393233688       21.4237932241
  H        17.6715283676        3.5016745669       21.9926829403
  C        17.7237943457        1.7553711695       23.5376851258
  S        11.8753957876        6.1955794749       12.0050244119
  C        11.4617956552        8.7995763601       11.4627322884
  H         6.0269822965       -2.0192612939       38.8324528190
  H         6.2892796527       -2.0777630850       37.0956861722
  H         6.2066197874       -0.4654563382       38.2020117874
  H         1.3706100033       -2.3626762409       18.4268711526
  H         1.6762452652       -1.8349483252       16.7076438901
  H         0.4820308424       -0.8843977848       17.7468984989
  H        18.8634284374        1.7237871436       23.4305282924
  H        17.2085223931        0.7971905167       23.6132022012
  H        17.5737727522        2.2972690161       24.4470165903
  C        12.1763948422        6.9472397306       10.4504043675
  N        11.9497852743        8.2856825625       10.3211247544
  O        11.2218888459        9.9887706284       11.6371797062
  S        12.7179615211        5.9465977556        9.0447377096
  C        12.0583011270        8.9352256635        9.0102191533
  H        12.3372364336        9.9471256134        9.1707997613
  H        12.9285902934        8.6517301627        8.3870176436
  C        10.8094013350        8.8304902036        8.1844087585
  H        10.9521587958        8.5649485266        7.1404804507
  H        10.0313713374        8.2629901384        8.6837334792
  H        10.3116954720        9.8257637400        8.0663731305
  H         4.0500270392        0.5236805064       12.1412683317
  C         3.7592127627        1.5263693007       12.3619228357
  H         4.6589455980        2.1236129494       12.5261296488
  C         2.8893851236        2.0255542473       11.1045467816
  C         3.0258227546        1.6653777000       13.7646337404
  C         3.6358850216        2.4943602653        9.8094297026
  H         2.3176082637        2.8647404926       11.4231134914
  H         2.1705758086        1.3125878953       10.7575283630
  H         1.9662491908        2.0782429811       13.6634021997
  H         3.5709429720        2.2500149338       14.4513250558
  H         2.8857894533        0.6895389789       14.2346460937
  C         4.5666179292        1.3754871407        9.3068858500
  H         2.9484633590        2.7058470782        8.9906645631
  H         4.2602104903        3.3833648035       10.1345569066
  C         5.4354374645        1.7607414908        8.1576850777
  H         3.9761045180        0.5284344227        9.1058924493
  H         5.2300881941        1.0194641867       10.1053555311
  C         6.7075145518        2.6001757614        8.4469236361
  H         4.8699059537        2.3805523436        7.4472650080
  H         5.7361838461        0.8432629170        7.7066442308
  C         7.9325285108        1.8839374612        8.9684736560
  H         6.8738799660        3.1369021405        7.5472901244
  H         6.4288409109        3.3445301834        9.1899911119
  C         9.1452831498        2.7154990883        9.3574122553
  H         8.2333566249        1.1683160324        8.1216949777
  H         7.7030350085        1.1660170865        9.7311419638
  C         8.8022756089        4.0157128049       10.0633540500
  C         9.6438317200        3.5392660052        8.1512474683
  C        10.2963241040        1.9895093768       10.0638151377
  C         8.9699856743        5.1603445264        9.3394538759
  C         8.2067181987        4.3255703904       11.2969759374
  C         9.4787307715        4.9252532630        8.1099662235
  C        10.0736696037        2.9394752963        7.0208651186
  H         9.9480931625        1.3335237013       10.9065393212
  H        10.6274530055        1.2634208145        9.3458841729
  C        11.4829721547        2.8563784759       10.5874288076
  S         8.3149270481        6.5535171070       10.0682862449
  C         7.9662278114        5.6457787319       11.4487769282
  H         8.0665623111        3.6079198000       12.0746272919
  C         9.8807230714        5.5595887608        6.9618280910
  H        10.1064039029        1.9121632548        7.1086743342
  C        10.3250504163        3.5371824375        5.8127595138
  H        11.1577500387        3.8057368614       11.0100767888
  H        12.0499659786        3.1616384968        9.7256391372
  C        12.3005201008        2.1798003381       11.6350566226
  C         7.4421063959        6.3051233741       12.6658835396
  C        10.2548670345        4.9159765479        5.7633290253
  H         9.8285054719        6.6315786205        6.9037197464
  C        10.7934963363        3.1790796748        4.5624510419
  H        13.2096539529        2.8305735136       11.5822363719
  H        12.6654488560        1.3093219653       11.2170227174
  C        11.5380389591        2.1014369370       13.0064424551
  C         7.4831312149        7.6879826375       12.9558672531
  C         6.8722914707        5.4984980558       13.7796955828
  C        10.5560710959        5.5732582708        4.4292859070
  C        10.8841331381        4.2723354426        3.6967698208
  S        11.0821386882        1.6517770070        3.7256362937
  H        11.0215385764        3.1616320485       13.1039196175
  H        10.6629516350        1.4554884165       13.0734878242
  C        12.5108321118        1.7340800876       14.1469562187
  N         7.9920694298        8.5496182301       12.0146755579
  C         7.1561720133        8.2682235207       14.1672407360
  C         6.5068819141        6.0280319080       14.9956431563
  H         6.5277182396        4.4387109693       13.6467427227
  C        11.8965105535        6.4101856933        4.5436332520
  C         9.2991001889        6.3462545498        3.7952058696
  C        11.3715422667        3.9287180440        2.4223625251
  C        11.4739148624        2.5920762977        2.2800934071
  H        13.4597739524        2.2598091303       14.0443348077
  H        12.6334412305        0.6466442973       14.3631783350
  C        11.9868570107        2.2210804378       15.4827110965
  S         7.9821160121       10.0102055030       12.7094599429
  N         7.3337065844        9.6301131388       14.1379592275
  C         6.6542750936        7.5052623820       15.2502595969
  H         6.0813070349        5.3211397558       15.7080261673
  H        11.7165885835        7.2364486822        5.1426935902
  H        12.3723137690        6.7422971806        3.5729232114
  C        12.9707837105        5.6766523905        5.3241292875
  H         8.7123469739        6.9100946300        4.4942432921
  H         9.5679454587        7.1010822777        3.1506283742
  C         8.2894926237        5.4820081353        3.1291289709
  H        11.5557521459        4.6829988073        1.6837001036
  C        11.7274628243        1.9277043970        0.9606152229
  H        11.8610471099        3.3125092251       15.2790377052
  H        10.9837538547        1.8385457112       15.7140603320
  C        12.9617381224        2.0235724832       16.6591040228
  C         6.4910678629        8.1349313158       16.5142678052
  H        12.6645225832        5.4870934676        6.3127442308
  H        13.1831558955        4.7012047674        4.8510963978
  C        14.3257001167        6.4174967020        5.3790783266
  H         8.0153427247        4.7100948816        3.8776340112
  H         8.7324398937        4.9560042707        2.3261770030
  C         7.0949419821        6.1585975508        2.6487537587
  C        11.9817509812        0.5309000508        0.7949224442
  C        11.7647990489        2.6593136353       -0.3733645122
  H        14.0055752230        2.2883472421       16.4979191232
  H        12.9905486053        0.8982203768       16.9139332046
  C        12.5060254594        2.5523374628       17.9898260461
  H         6.5624048363        9.2203336695       16.4923902565
  C         6.1902559440        7.6749403152       17.7827053339
  H        14.3570595483        7.2133755931        6.1150888775
  H        14.5205926835        6.9383471539        4.4191685682
  C        15.4930710459        5.5123392461        5.7105309731
  H         6.9286655404        7.0855792413        3.2060137630
  H         7.1400317534        6.5443976175        1.6267503143
  C         5.8894402505        5.2648458006        2.7381574703
  N        11.8633738894       -0.4454902156        1.8120811694
  C        12.2425976587       -0.0633146274       -0.4205021680
  C        12.2179717344        2.0951299138       -1.5988557146
  H        11.4480132535        3.6695562957       -0.3233057111
  H        12.5608468382        3.6112032790       18.0066715725
  H        13.0948177771        2.2440838094       18.8137947018
  H        11.4993260091        2.3469370357       18.1760250407
  S         5.9135039034        6.0750177089       18.2277872594
  C         5.9915955659        8.6596612188       18.8864934563
  H        15.2162911330        4.5182586004        5.9714029458
  H        16.2011176545        5.3661610979        4.7846536492
  C        16.3903131648        6.0202670843        6.8609786163
  H         5.8048344803        4.8818066376        3.7980451202
  H         5.9282408026        4.3134567334        2.1947982913
  C         4.5270247458        5.9562050251        2.4133229013
  S        11.8464439305       -1.9424824140        1.1301513403
  N        12.1666873779       -1.4684904150       -0.4151772632
  C        12.4834240950        0.6086465417       -1.6552321225
  H        12.1098419690        2.7208388610       -2.4769490491
  C         5.7501804162        6.6839208445       19.8739412676
  N         5.6977892884        7.9866643493       20.0550262810
  O         6.0668422918        9.8756594378       18.7038915573
  H        16.5540528829        7.0554651723        6.7313414856
  H        15.8611611018        5.8521439442        7.8308349237
  C        17.6300492359        5.1630078618        7.1010255519
  H         4.4937901500        5.9804752386        1.3750988907
  H         3.7723657400        5.2796988881        2.7845878618
  C         4.1627470264        7.3318655812        3.0414818735
  C        12.7228941407       -0.1769186832       -2.8330771929
  S         5.2086959827        5.6268876680       21.1813244590
  C         5.5766167692        8.7434238506       21.3186212531
  H        17.6046717869        4.7980979404        8.1288857530
  H        17.6135798609        4.3630654714        6.4018135237
  C        18.8536171427        6.1037761268        6.9437079797
  H         4.6675361534        7.3946229274        4.0106549276
  H         3.0971292588        7.5250507157        3.2892990691
  C         4.5283597257        8.4526114696        2.1611078735
  H        12.4992537827       -1.2010263065       -2.7599640505
  C        13.2679284762        0.1916225536       -4.0039007086
  H         4.8102629731        8.1914149681       21.9075688146
  H         5.1382540188        9.7242268583       21.0168417828
  C         6.8675860408        8.8668866131       22.0694055254
  H        19.7393338135        5.7105525580        7.3978156305
  H        18.5993956342        6.9871882790        7.4835075923
  C        19.0741939694        6.4666670935        5.4976058990
  H         5.3197555730        9.1283606331        2.5179763750
  H         4.9100691813        8.0924753037        1.2193094782
  C         3.3088099054        9.3282196635        1.7879690796
  S        14.0404912243        1.6881673769       -4.4054366182
  C        13.3602602924       -0.8606965858       -4.9900670397
  H         7.7805998374        8.7380154845       21.5391486595
  H         6.7200843995        8.1860713730       22.9395879027
  H         6.9438836774        9.8821676827       22.4861828976
  H        18.1322383535        6.9652510322        5.0297659329
  H        19.9290794634        7.0996224735        5.3510297329
  H        19.1987794987        5.5502170398        4.8970594225
  H         3.5202788741        9.9951746647        0.9268735089
  H         2.4975558713        8.6553165915        1.6287094624
  H         3.0662825403        9.9021219329        2.6750219852
  C        14.3606334356        0.9702482215       -5.9481391659
  N        14.0645813164       -0.3302390612       -6.0476763318
  O        12.8204351836       -1.9814114245       -4.9045326459
  S        15.1681900866        1.7263405702       -7.2851792747
  C        14.1450829791       -1.1226966664       -7.2896704972
  H        14.1583422961       -2.1261627539       -6.8849008603
  H        15.1056429535       -0.9527595274       -7.7744372370
  C        13.0138421016       -0.8730437754       -8.2212412537
  H        13.1963964903       -0.2134361402       -9.0355375959
  H        12.0226548401       -0.5859099578       -7.7669393784
  H        12.9091982842       -1.8350609071       -8.7666470857
