352
 i =    17300, time =     8650.000, E =       106.1276968349
  H         9.6024971571        5.9748921495       31.6487179501
  C        10.6244220807        6.0752044245       31.8949862614
  H        10.6403124177        7.1132488095       32.2320837852
  C        11.6370528968        5.9112241098       30.8117209776
  C        11.0854104250        5.1937031431       33.0495220780
  C        11.1616888802        5.0915728691       29.6601850551
  H        11.8529955074        6.9114117375       30.5570959455
  H        12.5565064867        5.5841171416       31.2736115994
  H        12.0543679787        5.5233618293       33.5002955493
  H        10.5139181307        5.2934485684       34.0097695511
  H        11.3342405172        4.1247794999       32.8343053498
  C        10.5416045847        5.9709422285       28.5897422636
  H        10.4256233501        4.4017505574       30.0329987297
  H        11.9884436740        4.5839789583       29.1223234000
  C        10.8495526560        5.6666659762       27.1433088418
  H         9.4271257463        5.9334098291       28.7359260678
  H        10.6698575944        6.9699283127       28.7996637213
  C         9.6415053359        4.8739512517       26.5526603246
  H        11.7377622408        4.9788378783       26.9713693582
  H        11.0406432395        6.5968873557       26.5236904465
  C         8.6123482452        5.8236748173       25.9092421686
  H        10.0246838960        4.3197622256       25.6676555539
  H         9.1756832338        4.2544138575       27.2793729165
  C         7.4496063726        5.0604520820       25.1682193861
  H         8.1958123365        6.4845854369       26.6870044203
  H         9.1579133901        6.5171481280       25.2386060413
  C         7.1392633346        3.7328200316       25.8201440521
  C         7.9411768157        4.4173001071       23.8974289324
  C         6.2723242672        5.9807736872       24.8506147171
  C         7.5093936380        2.6699879931       25.1107734463
  C         6.5313557541        3.2638810388       27.0042554047
  C         7.9267682979        3.0558406074       23.8086151108
  C         8.4341421482        4.9936217860       22.7606949592
  H         6.4851363487        6.5218524782       23.9353660038
  H         6.2118280376        6.6199259767       25.8173059713
  C         5.0052407039        5.2293217332       24.5937752095
  S         7.0115429028        1.1209453059       25.7394296328
  C         6.3972945933        1.8916619235       27.0718542558
  H         6.1619869130        3.9370399954       27.7854676034
  C         8.3231098096        2.4327573557       22.6450026060
  H         8.3467841302        6.0477996573       22.7843107889
  C         8.8781216358        4.4021875975       21.6213481802
  H         5.1413091791        4.5498668888       23.7134421708
  H         4.6899428889        4.5913904525       25.4451719866
  C         3.8366999954        6.1247304379       24.2971953449
  C         5.8462747900        1.1302529003       28.2586215776
  C         8.7634919978        3.0570303921       21.4973317831
  H         8.2163148007        1.3051308648       22.7061053318
  C         9.2589455914        4.8161710139       20.3322351252
  H         3.2232157429        5.5794893050       23.5293420899
  H         4.1923038740        7.0514525044       23.7814612237
  C         2.9752248452        6.6070200941       25.4667990022
  C         5.9309422715       -0.2771762451       28.5306575220
  C         5.4966633705        1.9222993955       29.5060734003
  C         9.1596020546        2.4045796179       20.1584590769
  C         9.3945685219        3.7262655056       19.4701905255
  S         9.5570938948        6.3773146458       19.5897045208
  H         2.0603525579        6.8951909494       25.0125633329
  H         3.3025049819        7.4741275208       26.0115222002
  C         2.4590637284        5.5222003738       26.4031073496
  N         6.2660502488       -1.2143554376       27.5324289897
  C         5.6145858402       -0.9220520194       29.7307582482
  C         5.1710607489        1.2982359314       30.6707449250
  H         5.2488683431        2.9488349880       29.4620575920
  C         8.0494961099        1.5212905062       19.5428951293
  C        10.4315154697        1.4243365977       20.2412259921
  C         9.8635246127        4.1613683099       18.2071471737
  C         9.9781871712        5.5714666614       18.1467112590
  H         2.0072197555        4.6017606388       25.8706762174
  H         3.3731455717        5.2098940035       26.8242077364
  C         1.3834087793        6.1881943267       27.4490056597
  S         6.2136579330       -2.7192005494       28.2467299481
  N         5.8220572336       -2.2875709574       29.7589753043
  C         5.2912960043       -0.1563400327       30.8982080671
  H         4.8096744176        2.0244271767       31.4174812325
  H         7.8720835606        0.5813131243       20.1135757371
  H         8.3225102614        1.0611109218       18.6595910279
  C         6.7368789114        2.3580313243       19.2024074012
  H        10.6586752702        1.0892002140       19.2757478516
  H        10.1781369076        0.5782823399       20.8947962543
  C        11.6900735479        2.1201736801       20.8180679098
  H        10.0034286325        3.4035351109       17.4493284754
  C        10.2721346635        6.3141855260       16.9218812762
  H         0.5104198058        6.5155662874       26.9188077769
  H         1.7737812911        6.9934768935       27.9991983086
  C         0.8547206881        5.1588591005       28.3665307301
  C         5.1112846354       -0.8652615572       32.1254262112
  H         6.9053141769        2.8736899584       18.2715029635
  H         6.6438792284        3.1934692804       19.9247405396
  C         5.5007820047        1.5108061624       19.0266013564
  H        11.5208288500        2.8086864298       21.6595012386
  H        12.0313849171        2.8119801127       20.0412649860
  C        12.7866493931        1.0593133124       21.0704481719
  C        10.1879643896        7.7100949531       16.7718865233
  C        10.2818560525        5.4165423220       15.6735121056
  H        -0.2857887794        5.1868069117       28.3606360058
  H         1.1242639257        4.1227852592       28.1781613371
  C         1.4274269199        5.4398050527       29.8111631307
  H         5.4356233932       -1.8776953822       32.1596107218
  C         4.7369074516       -0.4116830778       33.3857068255
  H         5.2231986494        1.1100629191       20.0127696076
  H         5.7500226142        0.6255276469       18.4194147340
  C         4.2433569032        2.1765504241       18.3718034613
  H        12.5564693071        0.4509133631       21.9258478265
  H        12.8656067494        0.3550913938       20.3195698473
  C        14.1215011558        1.6602827945       21.3419412128
  N         9.9647323730        8.5646292186       17.7758080110
  C        10.3712740750        8.3104518091       15.5481397364
  C        10.4919734571        6.0648880039       14.4690943539
  H        10.3427864623        4.3492865962       15.7341167275
  H         1.1569590842        4.6370735432       30.4438575547
  H         2.5045041129        5.6367736171       29.8243625430
  H         1.1540556786        6.3462946213       30.3102617121
  S         4.3858333933        1.2804308136       33.9241759870
  C         4.7523299849       -1.3851770936       34.4813888774
  H         4.1202073502        3.1812690362       18.7215382077
  H         4.2676285934        2.2512632054       17.2511715176
  C         2.9443405372        1.5379828558       18.7827505806
  H        14.2340455049        2.4826246079       20.6555422193
  H        14.9343565281        0.9293816921       21.1689638958
  C        14.2131674053        2.3215828568       22.7694635572
  S        10.0641758816       10.0954927910       17.2119824174
  N        10.2686337931        9.7414974144       15.6737222066
  C        10.6271076289        7.5403831309       14.3798632444
  H        10.6992718284        5.4485052577       13.6573376291
  C         4.3519614425        0.5913463195       35.4979303632
  N         4.5325400444       -0.7691061087       35.6038502127
  O         4.9829869230       -2.5984944881       34.4013869547
  H         2.0744565388        2.2001559283       18.6913315928
  H         2.9077390559        1.2711912522       19.8313546310
  C         2.8131480180        0.1668925421       18.0206069185
  H        13.5061216253        3.0974942711       23.0215733237
  H        14.0135025544        1.4914335377       23.4660011922
  C        15.4697125847        3.1155957234       23.0403300780
  C        10.9125937326        8.3035417076       13.2211630855
  S         3.8827573227        1.6243010470       36.8427284016
  C         4.6674137728       -1.4175157613       36.8858076047
  H         2.4429047923        0.3517620737       16.9492314891
  H         3.8027084307       -0.3122892720       17.9890957988
  C         1.7548148605       -0.8229183919       18.5969157526
  H        15.4047350446        3.5883562811       24.0882617717
  H        15.5064831837        3.9490993901       22.3314128419
  C        16.6347843729        2.1912131059       23.2236868187
  H        10.8851853302        9.2822975679       13.4070237915
  C        11.2434108542        7.9118219056       11.9435945680
  H         4.3490123315       -0.8974662471       37.7837682977
  H         4.0734754682       -2.3387082042       36.8624978610
  C         6.1423488172       -1.6092296415       37.2202137069
  H         0.8385015122       -0.3169987917       18.6676651006
  H         2.1152661243       -1.1795525821       19.5627418604
  C         1.6210825171       -1.9836539319       17.6562002682
  H        17.1811894670        2.3745006599       24.1530425197
  H        16.2700659410        1.1130235945       23.3364119750
  C        17.7166032894        2.3578010045       22.2937716670
  S        11.6906073708        6.3650458989       11.4033884484
  C        11.5141512262        9.0213825339       11.0185453868
  H         6.3487411589       -1.4359633976       38.2749444149
  H         6.4416166165       -2.6103027488       36.9820951549
  H         6.8130332928       -0.9001905173       36.7399466601
  H         0.9472653563       -2.7046091156       18.1287484377
  H         2.6049128203       -2.4211235300       17.3960730381
  H         1.1733953165       -1.7875479125       16.7318850497
  H        18.6967281084        2.2570494939       22.7596019220
  H        17.7785650551        3.3099864886       21.8227128515
  H        17.5812944129        1.7241662042       21.4604067750
  C        12.0009537449        7.1583450396        9.8524331905
  N        12.0226054279        8.5353293284        9.8880333964
  O        11.1346091458       10.1465778603       11.2246587474
  S        12.3628939527        6.2970254925        8.3840873108
  C        12.2532180567        9.5303790726        8.7990541366
  H        12.4936022476       10.4762466291        9.1891373488
  H        12.8688298750        9.1771975035        8.0254346862
  C        10.8934187294        9.6578420714        8.0568360290
  H        10.0620761847        9.9521310408        8.7350035294
  H        11.0444415186       10.2856863158        7.1315066883
  H        10.7306408219        8.7208057422        7.5503891409
  H         4.5101756814        0.4983460131       12.1135048072
  C         4.3630936436        1.5736981202       12.3344352611
  H         5.2105530104        2.0780794842       12.0450172133
  C         3.2124736010        2.0119065724       11.4307075697
  C         4.0418681412        1.6310845249       13.8232493390
  C         3.8364419623        2.5246446697       10.1535623947
  H         2.6005838565        2.7916661711       11.8397406902
  H         2.5633158740        1.1932141247       11.1786757435
  H         3.3138530538        0.8121614907       14.0468457173
  H         3.5092079203        2.4708805640       14.0979614127
  H         4.9036656398        1.4169356034       14.5063344880
  C         4.5105148663        1.3914953856        9.2798724838
  H         3.0290416993        2.9895497078        9.6109005317
  H         4.5468538083        3.2584981254       10.3752698370
  C         5.2571388358        1.8509070254        8.0197941897
  H         3.7934057581        0.7022907015        9.0212404101
  H         5.2108467160        0.9005073677        9.9395860176
  C         6.5158904449        2.7115570980        8.3188045425
  H         4.5264729317        2.5100192680        7.5250821132
  H         5.4358057532        0.9110119332        7.4187906673
  C         7.7778829199        1.8828912576        8.7098392746
  H         6.6986602053        3.4608793149        7.5985202036
  H         6.3075559436        3.2510166119        9.1999784585
  C         9.0027098998        2.7523189470        9.0408714321
  H         7.8810162152        1.3114142037        7.8086626642
  H         7.5682535442        1.2140597416        9.5661285888
  C         8.6387065240        4.0483654040        9.7618143331
  C         9.3137619956        3.4867251656        7.8208627268
  C        10.2341155036        1.9879784026        9.6861508342
  C         8.8492025932        5.1704530999        8.9941377281
  C         8.1704148481        4.4172167296       11.0379544703
  C         9.2584653248        4.8326015259        7.7246240635
  C         9.7366907909        2.8430247194        6.6968873925
  H         9.8576027132        1.4799862856       10.5982953183
  H        10.3893987545        1.1206967237        8.9987857860
  C        11.3733061909        2.8903339218       10.0010253339
  S         8.6352427721        6.7028935647        9.7898879532
  C         8.0950613103        5.7652476626       11.1883925375
  H         7.9633001572        3.6769055891       11.7966349253
  C         9.6551617057        5.4796320361        6.6078333380
  H         9.8396908321        1.7681983404        6.6813577587
  C        10.1338771312        3.4867280454        5.5807306398
  H        11.1409058784        3.7594317428       10.6059240159
  H        11.8370537688        3.2666697918        9.1264608567
  C        12.5360082544        2.0947139164       10.5994871850
  C         7.6519853336        6.4283625878       12.4716116803
  C        10.1134996502        4.8169031015        5.4698113935
  H         9.6273475643        6.5490188042        6.6804332265
  C        10.6239411769        3.0433487460        4.3631362868
  H        13.4671713784        2.6407520048       10.5090612251
  H        12.5872651458        1.1134741091       10.0616168598
  C        12.1863231482        1.7242579406       12.0913001899
  C         7.5764525489        7.7913461937       12.7712649472
  C         7.3222259000        5.5158356730       13.6354097563
  C        10.6343834503        5.5154087924        4.1451572879
  C        10.9797565999        4.1105786469        3.5018340517
  S        11.0085929780        1.4712020957        3.5936871776
  H        11.4968661838        2.4383537572       12.5104822697
  H        11.7375694875        0.7122829193       12.1247429869
  C        13.4855417988        1.7856447394       12.9549793572
  N         7.7895102656        8.7533544914       11.7656389179
  C         7.3834233386        8.3205517201       14.0318833004
  C         7.2130463728        6.0446416550       14.9133803078
  H         7.1254078392        4.4647213065       13.5001466208
  C        11.9042363317        6.2831850431        4.4051481829
  C         9.6656443988        6.3257197934        3.2698851973
  C        11.4181790925        3.6805826553        2.2368931010
  C        11.4207188175        2.3035964825        2.1050366312
  H        13.9115490868        2.7691152392       13.1222091021
  H        14.2210791288        1.3086847527       12.3770447897
  C        13.3918259922        1.0509855675       14.3176332400
  S         7.7904679344       10.1705174945       12.4680575264
  N         7.3057380133        9.7192113504       13.9834376991
  C         7.1730103475        7.4958565438       15.1590786752
  H         6.8351118186        5.4370162928       15.6866279922
  H        11.6767667391        7.0340949430        5.1430720247
  H        12.1069487795        6.7987791682        3.4995606886
  C        13.1756270110        5.6109805471        4.7258357407
  H         9.2249133216        7.1456369393        3.8847014353
  H        10.0854529135        6.8244129899        2.4241517919
  C         8.4513387260        5.4981686637        2.7950344832
  H        11.6848936724        4.5182276154        1.5711203455
  C        11.6803291508        1.5296690352        0.8762577534
  H        13.1404009828       -0.0073893655       14.1219374003
  H        14.4456871619        1.0637791552       14.7631633627
  C        12.2337627598        1.6041655762       15.1915067033
  C         7.0158478062        8.1561681548       16.4074486961
  H        13.0301570342        5.0908871668        5.6662634987
  H        13.4299453929        4.7890182311        4.0127563194
  C        14.3326794145        6.6254834171        4.8574739302
  H         8.1341467934        4.6000615678        3.3838846746
  H         8.9321853194        5.0206035664        1.9486291210
  C         7.3173818453        6.4154890592        2.3686959398
  C        11.7353902397        0.0775264497        0.7687963601
  C        11.9810462747        2.3176970409       -0.3184683714
  H        11.3582743106        0.9345436335       15.2641147947
  H        11.9864032194        2.5108775110       14.7692238451
  C        12.6440776798        1.8527175600       16.6181411238
  H         7.2772369586        9.1614267817       16.3506356298
  C         6.6675864078        7.7683844266       17.6600773774
  H        14.1944350732        7.3241799808        5.6791854100
  H        14.3385282662        7.1968757249        3.8647736534
  C        15.7232371018        6.0118790506        5.0525065766
  H         7.2786186445        7.3639753798        2.8308091633
  H         7.3190493370        6.7262822201        1.3365990915
  C         5.8862759433        5.8553559795        2.6005155678
  N        11.4934949198       -0.8261457644        1.8003349336
  C        12.0804289431       -0.5624095107       -0.3524364931
  C        12.1897404938        1.6127680955       -1.5039985971
  H        11.9547363215        3.3861097502       -0.2675944003
  H        13.6148973006        2.3597085423       16.6896468705
  H        12.7920339009        0.9670312396       17.2077205682
  H        11.8589405759        2.4147309514       17.0721591365
  S         6.2480195120        6.1975284720       18.0916446746
  C         6.5973245992        8.7916945657       18.7075157902
  H        15.8690876731        5.0458702634        4.6418661799
  H        16.5477762789        6.6181546249        4.7143885891
  C        16.0156869656        5.8854674930        6.4819774541
  H         5.7700348248        5.7473022322        3.7243083899
  H         5.8267171801        4.8179588915        2.2175373531
  C         4.7578110857        6.6133502167        1.8227164440
  S        11.4861104980       -2.3218927276        1.2024259910
  N        11.9864571680       -1.9340478684       -0.3393190597
  C        12.2768995733        0.1019927906       -1.5507617526
  H        12.1502471233        2.1806647172       -2.4479317277
  C         6.0500401204        6.8192811042       19.7793222395
  N         6.2128967704        8.1455418717       19.8680560678
  O         6.7095652985       10.0472913982       18.5953176842
  H        16.2838871052        6.8754528741        6.7820180860
  H        15.1590419557        5.4685139306        6.9289605876
  C        17.1927446746        5.0510051606        6.8508674853
  H         4.9490600200        6.7674321461        0.7601048030
  H         3.8486755537        5.9356233448        1.8442181646
  C         4.3405680964        7.9724202912        2.4927482605
  C        12.6287933707       -0.5544527203       -2.7880422253
  S         5.5675070352        5.9288296692       21.1177418293
  C         5.9997768523        8.8478403817       21.1269096293
  H        17.1798423031        4.6787424523        7.9027057258
  H        17.2618373717        4.0696881410        6.3305287161
  C        18.4914873239        5.9179833826        6.8953941493
  H         5.0084944859        8.2550629784        3.3839401465
  H         3.4052484045        7.8936303770        3.0421237423
  C         4.3556518276        9.1090691343        1.4395007487
  H        12.3639627624       -1.5933597678       -2.7408821125
  C        12.9508963978       -0.0423453799       -4.0592703894
  H         5.1912547230        8.3956385836       21.7427569253
  H         5.8550391758        9.9513330385       20.8978574957
  C         7.2855991974        8.6522044434       21.9734412831
  H        19.1423253029        5.4454822646        7.7049202582
  H        18.3908650156        6.8760353181        7.4483281861
  C        19.2334166327        5.9115193872        5.5967374027
  H         5.3393602115        9.2713582822        1.1478101679
  H         3.8505703304        8.8386164249        0.4981620479
  C         3.6189185537       10.2740174262        2.1422461604
  S        13.3609377634        1.5189652226       -4.4980327182
  C        13.1863533354       -1.1406940780       -5.0538889549
  H         8.0129025013        7.8530188267       21.6663816742
  H         7.0529215444        8.3636563009       22.9733127773
  H         7.9575222442        9.4564118739       21.9293965112
  H        19.5444855953        4.8902417097        5.3897920184
  H        18.6974524080        6.1804897549        4.7521681551
  H        20.1469733177        6.4469713636        5.4969349837
  H         2.5519191325       10.1011853680        2.0756082076
  H         3.9748436150       10.3781766344        3.2039398239
  H         3.9375985395       11.2213913786        1.5905768123
  C        13.8323317834        0.8067117617       -6.0857649532
  N        13.7364308236       -0.5379921563       -6.1300837482
  O        12.9958961601       -2.3516310830       -4.8896934859
  S        14.2423874100        1.6578873761       -7.5417446464
  C        13.8572619554       -1.2691402037       -7.3625521019
  H        14.2591028193       -2.2610967856       -7.1309975609
  H        14.6699730329       -0.7642069258       -7.9734684990
  C        12.5872445493       -1.4444102573       -8.2266718459
  H        11.6514763925       -1.1597752125       -7.7520616195
  H        12.3939474949       -2.5018288863       -8.6084828744
  H        12.6821316481       -0.8672348931       -9.1238590902
