352
 i =    57400, time =    28700.000, E =        99.2111362221
  H        10.3605924502        4.0644249479       31.8419405332
  C        10.1912281145        5.0988958174       32.2039618927
  H         9.1135693220        5.1704981836       31.9637767418
  C        11.0285899712        6.1500528188       31.3577322956
  C        10.4175277536        5.2213718182       33.7309382180
  C        11.4520383336        5.4773938473       30.0511088133
  H        10.4381051975        7.0217539719       31.0792771073
  H        11.8977732436        6.5257138536       32.0128078332
  H         9.7495863312        4.5833652487       34.2190194468
  H        11.4092447243        5.1550764970       34.0350517011
  H        10.2681180660        6.2279673938       34.1003806992
  C        10.2383579507        5.0724915809       29.1818218005
  H        12.0955901041        4.7076895691       30.2771042414
  H        12.0584624188        6.2428222325       29.6369661070
  C        10.4520320871        5.2437674998       27.6691263798
  H         9.8852679030        4.0260130148       29.3047888052
  H         9.3682241084        5.5995693010       29.4835730409
  C         9.4420431519        4.5005422232       26.7014392742
  H        11.4344327122        4.8790358067       27.3857072780
  H        10.4869138600        6.2986729619       27.4690924199
  C         8.2202024412        5.4280191727       26.2524366221
  H         9.9481516584        4.1034356868       25.8708105942
  H         9.0166531997        3.6838676886       27.2309401762
  C         7.0778619551        4.7370856167       25.5042958832
  H         7.7293474252        5.7962896212       27.1523995498
  H         8.5861060684        6.2866266289       25.6395474180
  C         6.7399650234        3.3704972803       26.1456128825
  C         7.5486238809        3.9712889250       24.2823362468
  C         5.8804750321        5.7401750917       25.2644773943
  C         6.9609496400        2.2310042356       25.3763254620
  C         6.1284601117        2.9659375058       27.3979101616
  C         7.5175169709        2.6019763548       24.1501314935
  C         8.1324464835        4.5977003263       23.1912784402
  H         6.0824707775        6.5920298201       24.5247702010
  H         5.6107021941        6.1384298982       26.1633484037
  C         4.5760452139        5.0914571900       24.8314490422
  S         6.5280353783        0.7399837303       26.0733750828
  C         6.0626897960        1.5660169366       27.4753986727
  H         6.0124912951        3.7331312149       28.0477059000
  C         7.9609940586        2.0152540046       23.0041917366
  H         8.1317428915        5.6632577978       23.2822537468
  C         8.5134692091        4.0166854352       22.0336288016
  H         4.8230798531        4.6472727176       23.8406181105
  H         4.3560678727        4.2328142229       25.3966499285
  C         3.3188834883        6.0418082177       24.7502075890
  C         5.5903106572        0.8527772558       28.7331978505
  C         8.3586380725        2.7260310263       21.8575730024
  H         7.8227796475        0.9792553687       22.9036310428
  C         8.8926621173        4.4916904101       20.7891707892
  H         2.6107753751        5.6490484301       24.0047955558
  H         3.5032896511        7.0615103230       24.3835097530
  C         2.5170243581        6.0449872675       26.1186956387
  C         5.6474193528       -0.5504604795       28.9157970055
  C         5.2678454124        1.7105313713       29.8715428118
  C         8.7295481670        2.1527998409       20.5279056777
  C         9.0648539974        3.4767140050       19.8533832780
  S         9.0953061748        6.0606629183       20.1354586205
  H         1.8621884805        6.9173230678       26.1731081903
  H         3.2564559479        6.2467486231       26.8606824327
  C         1.5477432130        4.9379672938       26.3677827759
  N         6.1455316009       -1.5812880410       28.0706774873
  C         5.3872187568       -1.0196577138       30.2053034556
  C         4.8170598194        1.2071108151       31.0368238250
  H         5.2051660053        2.7738532827       29.6506921961
  C         7.5954097791        1.2912318705       19.8531259217
  C        10.0735899815        1.3749487933       20.5687588077
  C         9.4676162987        3.9519534413       18.5657947816
  C         9.5360570970        5.3001241024       18.5497365066
  H         0.7487494046        4.7971440530       25.6473180497
  H         2.0160409340        4.0341602078       26.1816836889
  C         0.9620007993        4.9552050134       27.7651750809
  S         6.1276677811       -2.9634542859       28.9169416795
  N         5.6123852652       -2.3798929692       30.3960877308
  C         4.9951032580       -0.2403356475       31.2731110665
  H         4.4399779844        1.8592199989       31.7645962502
  H         7.5024620872        0.4334908422       20.5571122331
  H         7.9524249276        0.8768819130       18.9343967242
  C         6.2909015919        2.0983383751       19.6735972091
  H        10.2870585048        1.0425339805       19.5396735602
  H         9.9637608715        0.4875346120       21.1863198171
  C        11.2751413346        2.2293864390       21.0070504307
  H         9.5718502493        3.2893791140       17.7522544882
  C         9.8920195811        6.1084436300       17.3343222288
  H         0.2361305789        4.0931686161       27.8686104095
  H         0.4207987746        5.8186878940       27.9596399216
  C         1.9472577042        4.9000043022       28.9020149874
  C         4.7576698125       -0.9004122035       32.5673231371
  H         6.3834012156        3.0318590501       19.1364536188
  H         5.8884611829        2.4369120551       20.6574441051
  C         5.1557077960        1.2638158924       19.1156028187
  H        11.0107218299        2.9175816377       21.8458054046
  H        11.5508142858        2.9040941532       20.1781391749
  C        12.5808091329        1.4701073919       21.2967840363
  C         9.9704460161        7.5521578777       17.2049189830
  C        10.2004014919        5.4002997495       16.0792449481
  H         2.6347669667        4.0499771298       28.7122118911
  H         2.4535693917        5.8719976157       28.9251096574
  C         1.2649346024        4.8927756506       30.2300477042
  H         4.7785178674       -1.9749186185       32.5815919347
  C         4.4754750913       -0.4813566487       33.8145809415
  H         4.7393026177        0.7878733136       20.0381108790
  H         5.5079836733        0.3939373069       18.5619099975
  C         4.0810082548        1.8689304128       18.2190694358
  H        12.4067202905        0.9812281853       22.2750763258
  H        12.6605068409        0.6397257034       20.6281380462
  C        13.7918428193        2.4321560305       21.3125316058
  N         9.7638949669        8.3840877139       18.2612756986
  C        10.1578046913        8.2207342253       16.0489152557
  C        10.4565263340        6.0402418423       14.9100755309
  H        10.1912021158        4.3478980328       15.9260465588
  H         1.9011655745        4.5297157698       31.0459830305
  H         0.9585527122        5.9369742524       30.4330307731
  H         0.3041395239        4.2895245797       30.2947563463
  S         4.0734182701        1.1330085801       34.2703492531
  C         4.4305114309       -1.4479835814       34.9402328114
  H         3.9130600531        2.8990875554       18.5234370400
  H         4.4165312846        1.7540909042       17.1696090862
  C         2.7164171606        1.1523884282       18.3815320269
  H        13.6741904073        3.3816656610       21.8488316159
  H        14.0433369326        2.6247136034       20.3012611864
  C        15.0467492129        1.7477285534       21.8989708801
  S         9.6587954107        9.8990516024       17.6504789032
  N        10.2307613776        9.5824864272       16.1910619086
  C        10.4365936452        7.5607171948       14.7882045992
  H        10.6412243041        5.4512512590       14.0413746133
  C         3.8837351398        0.4538800074       35.9144054727
  N         3.9339137329       -0.8733626570       36.0168548102
  O         4.7826988303       -2.6776879015       34.8239741667
  H         1.8902905822        1.6166199473       17.8362541142
  H         2.5430039544        1.0265294857       19.4371566027
  C         2.7995138661       -0.2587461272       17.7309359409
  H        14.7261635938        1.1940799298       22.7885822403
  H        15.3273715981        0.9182240835       21.2500229447
  C        16.3025387568        2.6120577873       22.0141466823
  C        10.8069749366        8.3147228903       13.6571332328
  S         3.5241686796        1.3965991217       37.3200785433
  C         3.7497879061       -1.5096895192       37.2946094558
  H         2.7781839662       -0.1335569141       16.6563872930
  H         3.7664225044       -0.8311549339       17.9441088807
  C         1.6875717207       -1.1456006161       18.2971829305
  H        15.9691024331        3.6633272409       22.2670998257
  H        16.7641331510        2.6542760942       21.0407834466
  C        17.2475561506        1.9782050631       23.0767608300
  H        10.5947229424        9.3487114992       13.8040027858
  C        11.2022782500        7.9549037161       12.3645755505
  H         2.9587045649       -1.1190328723       37.9028464636
  H         3.3027218798       -2.4789667582       37.1361938031
  C         5.0528702862       -1.7165882059       37.9495966309
  H         0.8082246649       -0.6447673332       18.3377791188
  H         1.7921263474       -1.5567459956       19.2412297480
  C         1.5046727005       -2.3038019503       17.2935767355
  H        17.5675571758        0.9607462247       22.8450619427
  H        18.1439809515        2.6385035436       23.0775833790
  C        16.6224441593        2.1046839281       24.3989171423
  S        11.6308933509        6.3664504045       11.7610067406
  C        11.2034280165        8.9690028402       11.3527484519
  H         5.0567736827       -2.7399598804       38.2890953945
  H         5.9412951472       -1.5666529061       37.2805155036
  H         4.9577340178       -1.0202622767       38.7392789147
  H         1.0073883967       -3.1932233512       17.7814623134
  H         2.5003439312       -2.7099437154       16.8914965508
  H         0.8871883896       -1.8949179173       16.4013872304
  H        17.4529046835        2.2977115577       25.1387238320
  H        16.1532087333        1.1754965404       24.6874201952
  H        15.9665339680        2.9111038910       24.4548800245
  C        12.0419360296        7.1385585286       10.2171316685
  N        11.7342496261        8.4656149639       10.2284521083
  O        10.7974063004       10.1104538652       11.5232085259
  S        12.7299291123        6.3316679115        8.8573216388
  C        11.8935225880        9.3537333754        9.0681877500
  H        12.4245840747       10.2859262337        9.3811847201
  H        12.5698704467        8.9314516306        8.3133441113
  C        10.4588969573        9.6015265203        8.4389985433
  H         9.8737573863       10.1121779410        9.1802112005
  H        10.4742999459       10.3225950002        7.5519262069
  H         9.9479895786        8.6709750564        8.2161369375
  H         4.4860834625        1.7101556578       12.7875196149
  C         3.6643451274        2.4520004790       12.9598700574
  H         4.1425659028        3.2593308190       13.4633113394
  C         3.0547832755        2.7871251982       11.5570062389
  C         2.5548770087        1.9983240569       13.8850292335
  C         4.1059030423        2.9375366517       10.4809037234
  H         2.4260579979        3.6824565058       11.5913574426
  H         2.3688860152        1.9207293718       11.1989659144
  H         1.9995712206        1.2444564172       13.3772886746
  H         1.9410414212        2.8282948610       14.1369345843
  H         2.9672907122        1.5984476188       14.8616670205
  C         4.6247874939        1.5661539351       10.0495688938
  H         3.6159992624        3.3459140382        9.5866403181
  H         4.8832850112        3.6582130619       10.6999530210
  C         5.2891704392        1.6153556660        8.6436755612
  H         3.9017030136        0.7425125355       10.0342209664
  H         5.4539811339        1.2189927226       10.7425894251
  C         6.5741808194        2.4702092392        8.6298233800
  H         4.5100186888        1.8457170351        7.8711298582
  H         5.7117856511        0.6516214890        8.3353937476
  C         7.8363002568        1.7838421348        9.2694107178
  H         6.5535035861        2.7633036621        7.5948556679
  H         6.3841209388        3.3280118000        9.1871021610
  C         9.1117034608        2.7615835385        9.3092787429
  H         8.1230616572        0.8387206800        8.7486365017
  H         7.6670484065        1.3425851550       10.1711240962
  C         8.6575320402        4.0613037595        9.9928897515
  C         9.3960605711        3.4225848378        8.0469131287
  C        10.3728497834        2.0293662079        9.9783491211
  C         8.7069311855        5.1585205508        9.1833387325
  C         8.2498805492        4.4476284912       11.2721183258
  C         9.1778341381        4.7606122015        7.9741609740
  C         9.9032670789        2.8484260585        6.9043046840
  H         9.8682614845        1.3672573077       10.8460775527
  H        10.8447042125        1.3888363404        9.2449456380
  C        11.4833806223        2.8914611926       10.4344161256
  S         8.3538629200        6.6787445127        9.9555897893
  C         7.9113835003        5.7798806459       11.3371341163
  H         8.1781242368        3.6863966302       11.9844055917
  C         9.4156773016        5.4502575023        6.8285070230
  H        10.0574133210        1.8085555334        6.8969988338
  C        10.1161265367        3.5124390321        5.7568851329
  H        11.0324071844        3.8024792158       10.7925389339
  H        12.0831938933        3.2510237445        9.5683249656
  C        12.3324971310        2.2261682273       11.5553209161
  C         7.5458028764        6.4100991091       12.6169096904
  C         9.9230782625        4.8889613055        5.6601457643
  H         9.3517231154        6.5242417117        6.9045141734
  C        10.6717287551        3.1401132331        4.5908743042
  H        13.4185527473        2.3101264735       11.4293171328
  H        12.1720820153        1.1313059756       11.3590085916
  C        11.7228302835        2.5578695573       12.9223489527
  C         7.4996234519        7.7717720941       12.8995138837
  C         7.0785809439        5.4926692137       13.7180301347
  C        10.3432897370        5.5653865368        4.4158369970
  C        10.7804793451        4.2178609577        3.7526520280
  S        10.9362983876        1.6674612697        3.8252715107
  H        12.1795902645        3.5098444470       13.3302760228
  H        10.6830520305        2.7129444197       12.9861454456
  C        12.0008756644        1.4388889968       13.9572577580
  N         7.6967415648        8.8303968559       11.9932469136
  C         7.3225264874        8.2324101992       14.2043086237
  C         6.7945293899        5.9954342539       14.9526032991
  H         6.9061879301        4.4633309773       13.4701417707
  C        11.5468487504        6.4684228224        4.7726799758
  C         9.1286867947        6.2512242094        3.6617288370
  C        11.3945579637        3.8222082056        2.5341503899
  C        11.4237787414        2.4622760909        2.3897361338
  H        13.0185690293        1.1808531212       13.7894673817
  H        11.5688445516        0.5443670208       13.6260692781
  C        11.6406903166        1.8241220428       15.3399036446
  S         7.7660380569       10.2207536199       12.8062912302
  N         7.4730130419        9.5900434563       14.2695191332
  C         6.8396072847        7.4264188421       15.2786205769
  H         6.3224903764        5.2676493602       15.6513455202
  H        11.2047719498        7.0551765343        5.5678612324
  H        11.5305404671        7.2204934321        3.9338096435
  C        12.8678869146        5.8106924658        5.2688545107
  H         8.7120985168        6.9640140945        4.4439752655
  H         9.4802944421        6.8480712218        2.8150414485
  C         7.9773663424        5.3092041546        3.1937486403
  H        11.7641513710        4.5503271792        1.8650038457
  C        11.7582323195        1.7114549094        1.1420482790
  H        11.0943667682        2.7217717253       15.2975043002
  H        10.9839512213        1.0461633510       15.7164459041
  C        13.0200080693        1.9295034407       16.1765408954
  C         6.6108836636        7.9863185959       16.5649730659
  H        12.7076584017        5.2365488303        6.1613297065
  H        13.2895150808        5.1830069428        4.4303587659
  C        14.0083918643        6.8200469757        5.4993341636
  H         7.5617205405        4.8897638895        4.1513598372
  H         8.3404828044        4.4590357089        2.5618907060
  C         6.8963837867        6.0775751124        2.4142715655
  C        11.7611853360        0.3299940854        1.0052617444
  C        12.2361004322        2.4786049880       -0.0670302475
  H        13.6674518934        2.6297662755       15.7317808026
  H        13.6008378325        0.9929381246       16.1067472998
  C        12.7259323087        2.0872863511       17.5759978821
  H         6.6575988004        9.0657198112       16.5912141555
  C         6.1758805743        7.5050033213       17.7305251912
  H        13.7698254485        7.3984860149        6.3826037920
  H        14.0462326697        7.4903267016        4.6035689503
  C        15.3719357455        6.1375988075        5.5497044391
  H         6.9239853893        7.1365730370        2.5174330201
  H         7.1407734226        5.9366437956        1.3231892098
  C         5.4664637636        5.5392369059        2.5537284251
  N        11.5076219262       -0.5514527426        2.0419823487
  C        11.9586582565       -0.2949086552       -0.2531843490
  C        12.5046314774        1.8699882091       -1.2325043970
  H        12.4901198250        3.5650949302       -0.0636741082
  H        12.1867052065        3.0055904239       17.8288568712
  H        13.5876116165        2.1890152794       18.1619208878
  H        12.2092977439        1.3404598995       18.0701589153
  S         5.8376350572        5.8337104612       18.1797143335
  C         6.0392988586        8.5453579415       18.7631549717
  H        15.4685724414        5.4394974662        4.8165569693
  H        16.0838664856        6.9954351567        5.3827092518
  C        15.6768620744        5.4687166522        6.8802445387
  H         5.1766365187        5.4987672249        3.5985945733
  H         5.5967596408        4.5000388796        2.3436359414
  C         4.4435062501        6.1970610919        1.6409735139
  S        11.5070846112       -2.0331051494        1.3439990393
  N        11.8531889295       -1.6456465430       -0.1940132268
  C        12.4020223410        0.3890247315       -1.4015468334
  H        12.8499028283        2.4911596213       -2.0043411366
  C         5.5205118618        6.5006821282       19.7945730071
  N         5.6051703779        7.8796685447       19.8452043104
  O         6.0174439541        9.7510505112       18.6212344285
  H        15.8271367506        6.2105279348        7.6240052199
  H        14.8458793031        4.7689341499        7.1629301813
  C        17.0492323150        4.6687953726        6.8827349841
  H         4.8317124575        6.0785360663        0.6187724411
  H         3.5843197513        5.5069307367        1.7475620690
  C         3.9420511398        7.5832186092        1.9989129011
  C        12.6768482021       -0.3366559507       -2.5849472992
  S         5.3241786691        5.5801314470       21.2819418497
  C         5.4741138733        8.5531747706       21.1407274515
  H        17.0046079199        4.0450836454        7.7916404091
  H        17.2073309448        4.0213391002        6.0278822499
  C        18.3313330526        5.5272583072        6.8375799233
  H         3.7011421996        7.6805077195        3.0482561618
  H         2.9837237524        7.6221227538        1.5105530389
  C         4.8252072118        8.7676343604        1.4929711807
  H        12.4139381392       -1.3695646034       -2.4882630087
  C        13.1891774790        0.0672409845       -3.7814788725
  H         4.7013507727        8.1967927759       21.7784395028
  H         5.0777963097        9.5485573072       20.9519757097
  C         6.8301457477        8.7032897572       21.8746727320
  H        18.7387463363        5.5172551125        7.8384085718
  H        18.1131586101        6.5454358862        6.6075617483
  C        19.4763463929        4.9919216741        6.0165631875
  H         5.2659485749        9.2514174485        2.3772191489
  H         5.6147982563        8.5068811399        0.7954660267
  C         3.9532344498        9.8874176251        0.9076338341
  S        13.5824280287        1.5872044697       -4.3350654111
  C        13.4423348185       -0.9960968470       -4.7515026877
  H         7.3167432037        7.7501152730       21.8830433310
  H         6.7019353360        8.9123886902       22.8827506216
  H         7.4582270968        9.4846752247       21.4444445279
  H        19.3422812554        4.8762455947        4.8993318229
  H        20.3224233401        5.6114213980        6.1206347060
  H        19.7513910549        4.0442312295        6.3482827510
  H         4.5040597614       10.8191147038        0.7873264552
  H         3.7124935993        9.5499090882       -0.1064185783
  H         2.9679406586       10.1221180575        1.3343252585
  C        14.0677843509        0.8895686880       -5.8352254570
  N        14.0562586185       -0.4952095288       -5.8484325591
  O        12.9206209856       -2.0658327330       -4.7350077629
  S        14.9724562260        1.7077573293       -7.0710909193
  C        14.2415995425       -1.2311150166       -7.0796007499
  H        14.2862680652       -2.2673142018       -6.8917240802
  H        15.2074501508       -1.0447426098       -7.4936231018
  C        12.9084338894       -1.1571010896       -8.0414981310
  H        12.9972710717       -0.6288341891       -8.9472819494
  H        12.0380869643       -0.8111210599       -7.4591675470
  H        12.6265514574       -2.1745861645       -8.3639852103
