352
 i =    26400, time =    13200.000, E =        98.4673029483
  H         9.9704676773        4.8056635385       31.4038473807
  C        10.3447326785        5.6864491456       31.9044452701
  H         9.4156762889        6.2088274637       32.2151282617
  C        11.1860697517        6.6871891517       30.9039431963
  C        11.1706454014        5.2962642910       33.1011462866
  C        11.6793897073        5.8895591876       29.7498346596
  H        10.6305329137        7.5609571660       30.5758452486
  H        12.0035811798        7.0417621484       31.4981018195
  H        10.4714043873        4.7805139706       33.8728447095
  H        12.0434055288        4.7705424115       32.7788451235
  H        11.5223405451        6.1800244870       33.6906468529
  C        10.5763225233        5.4625516679       28.8144127623
  H        12.1146974049        4.9775185103       30.1345368025
  H        12.5675424174        6.2663656886       29.2467405496
  C        10.9247060713        5.5374579324       27.2711028469
  H        10.2236301403        4.4631059463       29.0850322724
  H         9.7048541982        6.0684489450       29.0205053896
  C         9.8852804451        5.0639512460       26.2248262692
  H        11.8453292948        4.9835474962       27.1665200451
  H        11.0675371149        6.5503401502       26.9984082146
  C         8.6358819204        5.9428876483       26.0214280185
  H        10.4116175614        4.7920960089       25.3138145786
  H         9.4988344210        4.1631226133       26.5624564297
  C         7.4276072334        5.2412891315       25.3268537113
  H         8.3016959325        6.1463838176       27.0021092258
  H         8.8245332379        6.9342082608       25.5706498099
  C         7.0972552053        3.9009284945       25.9999378242
  C         7.8251090917        4.5628529779       24.0480671150
  C         6.1792906625        6.1181000946       25.2190494009
  C         7.2193070060        2.7973167458       25.1642593034
  C         6.5876267370        3.4642281272       27.2410282771
  C         7.6860779520        3.2006781341       23.9275811563
  C         8.2461740676        5.1464082491       22.8381526225
  H         6.3679050072        6.9610766645       24.5809383013
  H         6.0742744249        6.7631156304       26.0697119525
  C         4.9103526388        5.3308510649       24.7927255864
  S         6.9051322588        1.2521444766       25.8764349724
  C         6.4201887807        2.0847151620       27.2829412573
  H         6.2780806621        4.2108981470       27.9075276445
  C         8.0796640335        2.5977169496       22.7622590247
  H         8.2310289604        6.2334894582       22.9357287238
  C         8.5888123089        4.4795821953       21.6740628563
  H         5.1349402114        5.0792652544       23.7470920360
  H         4.6199625849        4.3513105480       25.2263459939
  C         3.5666353622        6.0780050763       24.7780786425
  C         6.0010967577        1.3725743425       28.5517265133
  C         8.4432624212        3.1639520112       21.5579011703
  H         7.9586569997        1.5543614323       22.8553858468
  C         8.9676247069        4.8028995547       20.4065704677
  H         2.8610035199        5.5629921670       24.0377785419
  H         3.6724146514        6.9882404805       24.3216806493
  C         2.9374618127        6.1999673406       26.1572757183
  C         5.9201567827       -0.0100086453       28.7795158640
  C         5.3127968983        2.2080823532       29.6188330158
  C         8.9004094978        2.3906202104       20.3218975811
  C         9.1764029383        3.7444569431       19.6149823975
  S         9.2658445357        6.3409723232       19.6668163697
  H         2.0966231781        6.8497874375       26.0336068152
  H         3.6062943693        6.6761485249       26.8630187049
  C         2.3581606998        4.8741667865       26.5927825789
  N         6.3082568690       -0.9948813319       27.8320970512
  C         5.6047947868       -0.5981197901       30.0224542927
  C         4.9936208378        1.6325609573       30.8669755910
  H         5.0278801955        3.2946895506       29.5095786270
  C         7.7452070939        1.5351781580       19.7849733719
  C        10.2033322690        1.5762058136       20.6528426497
  C         9.6863405017        4.1536830007       18.3201842699
  C         9.6799093027        5.5384201472       18.1883849295
  H         1.7453894712        4.5273166518       25.7058802615
  H         3.1289576921        4.0966365886       26.8371215413
  C         1.3530313148        5.0592554328       27.7248856567
  S         6.3469968392       -2.5049507985       28.5845764817
  N         5.7706048476       -2.0011031650       29.9911361727
  C         5.2190143661        0.1889840612       31.1574191436
  H         4.5357272146        2.2840781844       31.5916126679
  H         7.3956335319        0.9316199218       20.6173702439
  H         8.1766356902        0.8337531875       19.0797488237
  C         6.5535962409        2.2835095937       19.1171724756
  H        10.5915491295        0.9155630651       19.8686345498
  H         9.9190820930        1.0472946917       21.5657347267
  C        11.3646331148        2.3810323276       21.1392989960
  H         9.9475400466        3.3854345681       17.5576513511
  C        10.0305207045        6.2387843301       16.8742858854
  H         0.8337785049        4.1236141365       27.9166360543
  H         0.5997466590        5.7852997261       27.5427688857
  C         1.9821690667        5.6427111130       28.9618612654
  C         5.1007932813       -0.3916542236       32.4243442284
  H         7.0555413358        2.8748791733       18.3242850270
  H         6.1578259913        2.9639680901       19.8470686434
  C         5.4468466038        1.4117496850       18.5845163008
  H        11.0822935225        3.1353804156       21.9212327550
  H        11.6832693570        2.9786597176       20.3348732445
  C        12.5713449325        1.6496347130       21.7131768982
  C        10.0761304219        7.6450789541       16.7140786040
  C        10.4596570312        5.3998734469       15.7188797382
  H         2.9467528993        5.1655776050       29.1179355176
  H         2.2460765310        6.7036495259       28.7698617014
  C         1.2251488769        5.4507496598       30.3033237297
  H         5.1851049573       -1.4388201429       32.3835555966
  C         4.7192872850        0.0645021845       33.7077572217
  H         4.9263775692        0.8551673398       19.4128380565
  H         5.8499166778        0.7489976868       17.8352309714
  C         4.3570268232        2.2953727965       18.0355074665
  H        12.2860551139        1.0781975686       22.6191087892
  H        13.0512049495        0.8199920547       21.1092485345
  C        13.6681269340        2.6355803130       22.0378372565
  N         9.7747113698        8.5670436117       17.6774968617
  C        10.4938752579        8.2786322947       15.5743650882
  C        10.7839432822        6.0512978388       14.5299702416
  H        10.4175881994        4.3277098370       15.6947161753
  H         0.8353364772        4.4087808607       30.4506104476
  H         1.9911843710        5.4617400906       31.0457740933
  H         0.6188356032        6.3034022638       30.4454567508
  S         4.5938873018        1.7114342086       34.1653642238
  C         4.5930710648       -0.9335693945       34.8069540714
  H         4.0534707998        2.9640508165       18.8302637187
  H         4.6516874029        2.9179384963       17.2144076067
  C         3.0466267509        1.4409898084       17.5938850720
  H        13.2664069034        3.4505758994       22.5937699001
  H        14.1532410880        2.9795150504       21.0944532233
  C        14.8352203375        1.8508253444       22.8183597176
  S         9.9262792343       10.0997016261       17.0921445971
  N        10.3591795205        9.6405408156       15.6000845222
  C        10.8852947887        7.5212639635       14.4072479261
  H        11.0202213986        5.4327161547       13.6503493932
  C         4.4029064909        1.0839144859       35.7795731823
  N         4.4444733058       -0.2882666986       35.9610967723
  O         4.6965860624       -2.1275102587       34.5898836941
  H         2.5845352898        1.7934952975       16.6959786776
  H         2.3238691323        1.8032955664       18.2840394576
  C         3.1206148496       -0.1303646701       17.6185403699
  H        14.4891491024        1.1791783755       23.6110295288
  H        15.2956574939        1.1814473148       22.1200363275
  C        15.8946215835        2.8314584941       23.2526859583
  C        11.2778281168        8.2161863843       13.2173997102
  S         3.8009736578        1.9959748512       37.0811382015
  C         4.3830020245       -1.0225636939       37.2977095091
  H         3.9802101865       -0.5233051082       17.0790574890
  H         3.1954272265       -0.4535674493       18.6363603237
  C         1.8652515362       -0.7607704450       16.8717555043
  H        15.4534881000        3.5022759263       24.0100421428
  H        16.1611799771        3.4994805520       22.4145002123
  C        17.0807806313        2.1400666403       23.9984058340
  H        11.2015622792        9.2738549918       13.3851701284
  C        11.6965607758        7.8289523417       11.9835550848
  H         3.5934935394       -0.6829913130       38.0075350555
  H         4.0408641956       -1.9958007343       36.9955872937
  C         5.8669964898       -1.0641691435       37.8059298006
  H         1.8728627579       -0.6642063081       15.7696926427
  H         0.9314706878       -0.2771117932       17.1874159976
  C         1.7674272005       -2.2762796187       17.0078173430
  H        17.1680302739        2.7273461026       24.9745501116
  H        16.9252129219        1.1230704635       24.3755340121
  C        18.3603323057        2.0261693833       23.1529152232
  S        12.1754680792        6.2307016166       11.4427110891
  C        11.7834352054        8.9358275997       10.9751106839
  H         6.6012154323       -0.6174232641       37.1098653933
  H         5.9387151052       -0.4695300157       38.7675130396
  H         6.0537100074       -2.0829702198       38.1544527662
  H         0.7577869465       -2.5916161143       16.7580956486
  H         2.0195279144       -2.6652807861       18.0354921646
  H         2.5594134894       -2.6295269672       16.3489159472
  H        19.2370225027        2.0933778601       23.8407101301
  H        18.3623309668        2.8251561839       22.4168413864
  H        18.4385433696        1.1452063131       22.5161254527
  C        12.5517194309        7.0479821597        9.8978494968
  N        12.3098209513        8.3959835710        9.8800486110
  O        11.5315049786       10.1368293488       11.1872946941
  S        13.0463156821        6.2029805328        8.3944317377
  C        12.4769613376        9.2834255178        8.7340407608
  H        12.5606158658       10.4025157184        8.9895449503
  H        13.4613561030        9.0546487984        8.2766276107
  C        11.2664882654        9.2061094532        7.7833792155
  H        10.7286121936       10.0922625741        7.6601148025
  H        11.5169528309        8.8171652963        6.7819093106
  H        10.6878983490        8.4197826112        8.3032428557
  H         4.4372396420        1.0393661701       12.0278127497
  C         3.9102792048        2.0372397885       12.1490062460
  H         4.7365051031        2.7801122618       12.1927390122
  C         3.0030872562        2.0791868684       10.8979694961
  C         3.0549905080        1.7819034949       13.4029735401
  C         3.7092467666        2.4586154129        9.6624151018
  H         2.1547555854        2.7496023902       11.2032361573
  H         2.5470618594        1.0952167762       10.8796831423
  H         2.2252237522        1.0888762963       13.2092499394
  H         2.6983283448        2.6287980076       13.9528616588
  H         3.5452843784        1.1843822720       14.1435109084
  C         4.5909014707        1.2341034808        9.1984729862
  H         3.0196006255        2.6119488429        8.8157366418
  H         4.3136203447        3.3076036930        9.8620981301
  C         5.5704096443        1.6397554232        8.1471475095
  H         3.9809397778        0.4009941496        8.9021275604
  H         5.3329818789        0.7606031750        9.8886135337
  C         6.7793843684        2.5684096189        8.4799530304
  H         4.9550067319        2.2817724196        7.4797039746
  H         5.9886229971        0.8050223381        7.5221109429
  C         8.0490173025        1.7821047438        8.7881036341
  H         7.0168594915        3.2526835565        7.6865580703
  H         6.5137055500        3.3045701319        9.2373811095
  C         9.3832195831        2.6635782723        8.8867299087
  H         8.2303451570        1.0335364682        8.0283930010
  H         7.9058111739        1.2837192460        9.8227319544
  C         9.0444132095        3.9564461424        9.6362249137
  C         9.7834009926        3.3872986462        7.6515677936
  C        10.5067392707        1.9978295662        9.6850228251
  C         9.0713293745        5.0448788934        8.7902559302
  C         8.7548103840        4.3676534182       11.0037040884
  C         9.5771339400        4.7320090575        7.5558835112
  C        10.1665220894        2.8464259027        6.4476775608
  H        10.0506451061        1.6515957192       10.5985356888
  H        10.7582220609        1.1932193178        9.0342504173
  C        11.8197620573        2.7513971133        9.7559217074
  S         8.4486434157        6.4984420822        9.4929658870
  C         8.4314066001        5.7193113906       11.0845745198
  H         8.8287280069        3.6931167425       11.8245683792
  C         9.7392696646        5.3608833159        6.3607888636
  H        10.1704425405        1.7201196144        6.5524183470
  C        10.3693860839        3.4458562722        5.2703279126
  H        11.6906988496        3.7504427071       10.0536388584
  H        12.3231254203        2.7903138663        8.8061975394
  C        12.7161112211        1.9968176388       10.6765064315
  C         7.8971648873        6.4261613554       12.3398204281
  C        10.2419573623        4.7825569083        5.2109712478
  H         9.4832323649        6.3777103772        6.3151547870
  C        10.7725650797        3.0527685896        4.0220281311
  H        13.7434472002        2.4479053610       10.6137306562
  H        12.7200028038        0.9701352188       10.1876848736
  C        12.2610432548        2.0745826508       12.1036495449
  C         8.0000179347        7.7964998929       12.5008517408
  C         7.4149378329        5.6012866407       13.4787182689
  C        10.6364789813        5.4590148242        3.9325903255
  C        10.8960223195        4.1276309862        3.1471131473
  S        11.0692633550        1.5370106165        3.2985760360
  H        11.8369404445        2.9673819397       12.4647709177
  H        11.5603795951        1.1934885790       12.2853289800
  C        13.4135926887        1.7900846933       13.0711154286
  N         8.4868987565        8.6790625863       11.5178157657
  C         7.5928582271        8.3942181797       13.7234238347
  C         7.0450783775        6.1442248390       14.6461162115
  H         7.1798517456        4.5331612652       13.3583482110
  C        11.9282986007        6.2325735319        4.1299945867
  C         9.3986709683        6.1904524674        3.3493797668
  C        11.1268754904        3.6429641995        1.8380595524
  C        11.3311642170        2.2959239195        1.8348500273
  H        14.1771962208        2.5731131900       13.0826000516
  H        13.9271720934        0.9753516560       12.6063801808
  C        13.0555148253        1.3618886338       14.5255103793
  S         8.2440986559       10.2030035748       12.1889513762
  N         7.6932291906        9.7969436764       13.6876194771
  C         7.2109906691        7.6240087552       14.8480048735
  H         6.7168073725        5.4909943394       15.4202110339
  H        11.7411053740        7.0682736987        4.8153938732
  H        12.3347676239        6.6167729333        3.1844164888
  C        13.1320155780        5.2604456120        4.4754782901
  H         9.1482769593        6.9268122692        4.1191374612
  H         9.7355880873        6.7656522971        2.4781238239
  C         8.2247647636        5.2228404910        3.0339589020
  H        11.2087831139        4.3567883038        1.0093209784
  C        11.6209843981        1.4494761651        0.6246824455
  H        12.3756738459        0.5725388368       14.4680159023
  H        14.0168367552        1.0237829824       14.9987300796
  C        12.4570582470        2.4390269219       15.3843710007
  C         6.8349675317        8.3207155323       16.0676774932
  H        12.9532917551        4.6130844027        5.3794757221
  H        13.3615781470        4.7538183288        3.5353802713
  C        14.3670761438        6.0263190869        4.8178835978
  H         8.0351954925        4.5023550531        3.8033723801
  H         8.6323497545        4.6258651325        2.2377916617
  C         7.0801679851        5.9849481044        2.3432375699
  C        11.8134583754        0.0414889071        0.5393507144
  C        11.9202793585        2.2012969797       -0.6607830952
  H        11.3983501669        2.3699749123       15.2055957948
  H        12.7126489122        3.4408996584       15.0490223054
  C        12.7942832822        2.2255199538       16.9349938149
  H         6.7231209699        9.4092079365       16.0036688739
  C         6.5161768228        7.8262196091       17.3213840187
  H        14.1041275265        6.6512342759        5.7353846882
  H        14.6907358276        6.7880456271        4.1202802044
  C        15.4597906821        5.0760388987        5.1887529605
  H         6.7430342368        6.8351079410        2.8995045284
  H         7.2752050001        6.3026686807        1.3538702683
  C         5.8552225377        5.0141666782        2.2922459498
  N        11.6768428149       -0.8118037096        1.5538870272
  C        12.2303395762       -0.5889458296       -0.6366526269
  C        12.1143581434        1.5189972335       -1.8519174367
  H        11.8682584152        3.2578311347       -0.6066613318
  H        13.8362730839        1.9729979798       16.9797790251
  H        12.0944677567        1.4016377615       17.2327274609
  H        12.6829078001        3.1550929240       17.4817355593
  S         6.3259047996        6.1876256528       17.9046270054
  C         6.3705899026        8.8423543907       18.3374798298
  H        15.2561143210        4.3732378973        5.9890292695
  H        15.6168349177        4.4485632337        4.3140416980
  C        16.8283471683        5.7694322780        5.4800769647
  H         5.4736894151        4.8033823032        3.2424722560
  H         6.2214498129        3.9607286348        2.0109011086
  C         4.7092679523        5.4898931234        1.3301586901
  S        11.6610092893       -2.3407669953        0.9591838294
  N        12.2547145194       -2.0123460864       -0.5193084648
  C        12.3973536552        0.0588845702       -1.8569814728
  H        12.2843118498        2.0311146043       -2.8018276068
  C         6.1225703735        6.9606811458       19.5000927988
  N         6.1003426053        8.3165399666       19.5303564507
  O         6.2327164254       10.0639211788       18.0911345640
  H        17.4683534742        5.4905684627        4.6457038951
  H        16.7145939257        6.8868190373        5.5066372056
  C        17.3930868064        5.1876945559        6.7935626094
  H         5.0918955390        5.7535160216        0.3483601073
  H         3.9142518964        4.7705168930        1.2918070552
  C         4.1727865149        6.8253051900        1.7822096055
  C        12.7549813980       -0.7875850855       -2.9259546798
  S         5.7235755449        6.0215923531       20.9192334428
  C         6.0435244261        9.0226273077       20.7977713704
  H        16.7146157185        5.2105625722        7.6546772437
  H        17.5922406147        4.1346539318        6.4832062849
  C        18.7624286158        5.8487736246        7.1596164871
  H         4.6020820700        7.0860665319        2.7692574390
  H         3.1114826358        6.7085064879        1.9785337021
  C         4.4510358345        8.0279698652        0.7454519838
  H        12.7397043505       -1.8656261709       -2.7939016323
  C        13.2982887269       -0.4039100076       -4.1382382957
  H         5.3931960204        8.5357631346       21.5947919211
  H         5.5567984174       10.0367949035       20.7563863354
  C         7.4824658352        9.1708961208       21.3537701800
  H        18.9228246972        5.6312437368        8.2272782019
  H        18.6875748892        6.9202635178        7.1215599703
  C        19.7792147799        5.4369654559        6.1445731765
  H         5.4482079444        8.2575403555        0.5955025146
  H         4.0711861306        7.8035586607       -0.2723999456
  C         3.7495457269        9.3382481106        1.0959131733
  S        13.8852181568        1.1193058973       -4.7460394233
  C        13.3470941533       -1.5062929140       -5.1309331080
  H         7.6740708956        8.2648563465       21.8770530327
  H         7.5599015790       10.0327285486       22.0054518370
  H         8.2861087931        9.3048724195       20.6091796799
  H        20.7625858464        5.8605170226        6.4334058570
  H        19.7684954256        4.4196967601        6.0501299337
  H        19.6305086019        5.7656319839        5.1159767899
  H         2.7085945942        9.4017993981        0.8434460026
  H         3.9632931109        9.6495186511        2.1241421960
  H         4.2902485807       10.0973000802        0.4930191617
  C        14.3222228233        0.2770978645       -6.1853819206
  N        13.9301762258       -1.0094828485       -6.2479910532
  O        12.8479484378       -2.6466573050       -5.0188140504
  S        14.9354625977        1.0143952649       -7.6424222662
  C        14.0666813744       -1.7203737105       -7.5315497787
  H        14.0940044262       -2.8025506030       -7.2947949699
  H        15.0280139347       -1.4490696475       -7.8916104544
  C        13.0143989490       -1.3114049223       -8.4786437558
  H        13.2835720965       -1.5470286805       -9.5024810992
  H        12.6172004758       -0.3015123109       -8.3372588742
  H        12.2396206672       -2.0523640342       -8.2075621135
