352
 i =    24600, time =    12300.000, E =        96.0750865880
  H        10.5315297509        4.6753617116       31.4292636382
  C        10.4297850145        5.5967050073       31.9716948138
  H         9.2980645653        5.8158414454       31.9484325720
  C        11.0816951328        6.5664083898       31.0324421581
  C        11.1248685902        5.5544698508       33.2919074173
  C        11.4317345396        6.1072915274       29.6302348503
  H        10.3987945617        7.4406203604       30.8123711665
  H        11.9209796956        6.9302499123       31.5872188999
  H        10.9416416476        4.7060718707       33.9577683234
  H        12.1239168086        5.5951380108       33.0402998891
  H        10.7921283185        6.3685638579       33.8366307944
  C        10.3497850872        5.7921198229       28.6397462985
  H        12.0902185204        5.2683536361       29.7622363995
  H        12.0958559941        6.8554494531       29.2583424845
  C        11.0201469176        5.5378944658       27.2588059759
  H         9.7109272024        5.0019283013       28.9975147769
  H         9.7170631343        6.5942391799       28.6736498218
  C         9.9945124313        5.0294582595       26.2951239420
  H        11.8730853446        4.7978775127       27.4161459980
  H        11.5337651697        6.4083445982       26.8798157952
  C         8.7889655972        5.9754606096       26.0869644666
  H        10.4429037935        4.7608279992       25.3368710136
  H         9.7123453983        4.0556173678       26.6092487318
  C         7.5864999360        5.2245011003       25.3089438865
  H         8.3731159854        6.1681912575       27.0284175122
  H         9.0381176614        6.9191499087       25.5719500202
  C         7.2149925060        3.8861839699       26.0358685531
  C         8.0023893205        4.5059546987       24.0695444594
  C         6.2714026594        6.1911968057       25.0809410666
  C         7.5312107338        2.7577215088       25.2560153980
  C         6.7505008934        3.4354691758       27.2855492398
  C         7.9328130161        3.1340991587       23.9685896120
  C         8.3500281224        5.1120597510       22.8437416484
  H         6.5582852810        6.9597093150       24.3768905817
  H         6.1652629179        6.6712899005       26.0215898614
  C         5.0645677721        5.2644278452       24.7262584475
  S         7.3578507667        1.2510634417       26.0455391220
  C         6.7465545877        2.0713635503       27.3631817112
  H         6.4285033789        4.1473924694       28.0142430899
  C         8.2023517643        2.4435212715       22.8357960110
  H         8.0684166618        6.1625402559       22.7793928073
  C         8.6414308096        4.4350474421       21.7205625626
  H         5.3236472299        4.8838948409       23.7462772015
  H         4.8798408284        4.4519919321       25.4709573386
  C         3.7859283555        6.0960793740       24.6496278836
  C         6.2959323488        1.3517201830       28.5812664990
  C         8.5514515129        3.0882486549       21.6774835525
  H         8.1195945676        1.3462936136       22.8031411885
  C         8.9302575418        4.7357770170       20.4003723576
  H         3.0469324280        5.4970202791       23.9938725036
  H         3.9039273473        6.9169349365       23.9346193346
  C         3.1034510343        6.4519894809       25.9254183446
  C         6.2478809407       -0.0082220518       28.7850748260
  C         5.8107679364        2.1769130068       29.7830231699
  C         8.8882415031        2.3621892997       20.4442998076
  C         9.0792169599        3.5740977566       19.6225146581
  S         9.3747603230        6.1866431001       19.5456514145
  H         2.6071087862        7.4273608440       25.7331760578
  H         3.8520719680        6.6582171268       26.6891399252
  C         2.0133679572        5.4062215010       26.3538605855
  N         6.6506465860       -1.0130700105       27.9093697430
  C         5.8921053531       -0.5489127654       29.9868359816
  C         5.4827470616        1.6164810630       30.9859894711
  H         5.6019099285        3.2302132788       29.7259404599
  C         7.6981676856        1.4293609845       20.0160254684
  C        10.1876605169        1.5927201414       20.6414234386
  C         9.4331261305        3.8885177781       18.2594346000
  C         9.5022474328        5.2379594208       18.0790007600
  H         1.1861840355        5.3378167487       25.6864788296
  H         2.4343691325        4.4438545648       26.5296573655
  C         1.4329497758        5.8775152327       27.7262886967
  S         6.5354035816       -2.4608371826       28.5964054957
  N         6.0332109267       -1.9543853150       30.0270017648
  C         5.6775222130        0.1972185755       31.1429157634
  H         5.1152148225        2.2872064079       31.7393312035
  H         7.5433963183        0.7249731470       20.7990769920
  H         7.9486980515        0.7326544531       19.2090460887
  C         6.4358002927        2.1541306187       19.6282685521
  H        10.5441296965        1.2734895679       19.6761006464
  H         9.9728476428        0.7471126329       21.1998512406
  C        11.2944268387        2.3477799117       21.2694361939
  H         9.5541340216        3.0862863722       17.5945752382
  C         9.9164162708        6.0167633182       16.8393546586
  H         0.3791069520        5.9911413992       27.6389617823
  H         1.9575134681        6.7819826097       27.9048886444
  C         1.6938960871        5.0325265798       28.9623658727
  C         5.3821239151       -0.4710708326       32.4194245056
  H         6.6094642476        2.9852244576       18.8851063403
  H         5.9254882904        2.5836217622       20.4963053500
  C         5.3654831890        1.3111701001       19.0075814119
  H        10.9865569342        2.7556452641       22.2260190021
  H        11.4419372346        3.2421669516       20.7101502326
  C        12.5267538442        1.5029614077       21.4653881229
  C        10.0343163939        7.5043183727       16.7939641850
  C        10.2598349656        5.3409800106       15.5336550320
  H         1.0213425103        4.2079861767       28.8450598516
  H         2.6581967669        4.5630312841       28.9381341466
  C         1.5680222263        5.9067800110       30.1830632606
  H         5.7808296312       -1.4695810774       32.4094232939
  C         4.9962777921       -0.0663996817       33.6355612627
  H         4.9189483807        0.5285697045       19.6668877757
  H         5.7714850111        0.7711786593       18.2066376862
  C         4.1632905529        2.1589659244       18.5130714649
  H        12.2700882956        0.7620869998       22.2187240588
  H        12.8432486135        0.9439953163       20.5648542014
  C        13.6215237148        2.3228855843       22.0332552364
  N         9.7061021812        8.3805552546       17.7926682200
  C        10.3275922197        8.1719213869       15.6084950574
  C        10.6280729163        6.0426402209       14.4146530358
  H        10.2141324085        4.3006101192       15.5049668855
  H         0.5083005823        6.1999507421       30.4145626675
  H         1.9327244664        5.5191307614       31.1003981122
  H         2.2784617617        6.7471415295       30.0084350256
  S         4.4677619768        1.4537719340       34.0724841221
  C         5.0933995971       -1.1032536134       34.7195122211
  H         4.0641763580        3.0627969637       19.1344567173
  H         4.3702810064        2.4640851485       17.5218843713
  C         2.7745546012        1.4103524933       18.6266189194
  H        13.2786284826        2.7936258799       22.9272970943
  H        13.7696425202        3.2880685622       21.5014654225
  C        14.8566443725        1.5319183460       22.3433624365
  S         9.8184382290        9.8708844501       17.2648942036
  N        10.3089588454        9.5548264776       15.7429989229
  C        10.7146460935        7.5473105308       14.4092189335
  H        10.8358489681        5.4969683222       13.4888862900
  C         4.3173450944        0.7651763436       35.6949277325
  N         4.5617891597       -0.5904511403       35.8341091186
  O         5.2697248132       -2.3518699492       34.5897379568
  H         1.9990683649        2.1434827957       18.4464210061
  H         2.5429510619        1.1213368850       19.6598151784
  C         2.7402800976        0.1886425650       17.6810437177
  H        14.6225283835        0.9271551264       23.2147926590
  H        15.2664946290        0.8789743618       21.5285134858
  C        15.9272398302        2.4572061555       22.9876554061
  C        11.0392055749        8.2664837409       13.2301388241
  S         4.1710314127        1.7688761609       37.0681925663
  C         4.4425779427       -1.3326103392       37.1667358125
  H         2.0192237272        0.3039383629       16.8140751161
  H         3.5865491011        0.1708984267       17.0503420029
  C         2.4652664176       -1.1360611741       18.4098215301
  H        15.4488225339        2.9719362416       23.8167951534
  H        16.1746751554        3.2835292076       22.3553994447
  C        17.1996539512        1.8897892440       23.6045142946
  H        10.5925300272        9.2028820661       13.2247321331
  C        11.6905684251        7.9323493240       12.0884669224
  H         3.5539858551       -1.0224228983       37.7694711840
  H         4.2613315705       -2.3948456597       37.0694633265
  C         5.7029119819       -1.3281282139       37.9402931039
  H         1.5434580833       -1.0202467303       18.9986416104
  H         3.1659629873       -1.4564467244       19.1432985626
  C         2.4027108265       -2.2932683100       17.4210421691
  H        17.4602482422        2.4069226160       24.5258119316
  H        16.9256386612        0.8318749032       23.8003417829
  C        18.2746464994        1.9973685223       22.5448251868
  S        12.3886232940        6.4124687893       11.7220011406
  C        11.7830358485        8.9449430985       11.0653230349
  H         6.0098012296       -2.3602681449       38.1520292120
  H         6.5127434975       -0.6773070758       37.5639935000
  H         5.5257229285       -0.9815350271       38.9416209817
  H         1.7528611545       -3.0877494749       17.8099759864
  H         3.3713848968       -2.7684248983       17.0284619452
  H         1.9234664067       -2.0364454917       16.4572030898
  H        18.2384712979        1.1949452384       21.8324312966
  H        19.2217041685        1.6869765101       22.9622845354
  H        18.3964945529        3.0011730397       22.0353029798
  C        12.6330514828        7.1273100476       10.1526832233
  N        12.4429281320        8.4034461938       10.0420301739
  O        11.4171319768       10.1149662088       11.1926559716
  S        13.3621459174        6.3390948190        8.7634099548
  C        12.4815788584        9.1874068046        8.7517099775
  H        12.7019803532       10.2178884769        8.8480022872
  H        13.2783940537        8.8958001999        8.0538882255
  C        11.1411151028        9.0207156872        8.0893235754
  H        10.7202980984       10.0159101496        7.9098020670
  H        11.0324080901        8.3406211089        7.1709366352
  H        10.3818260893        8.4987520986        8.7229391619
  H         5.3823758595        1.6471373442       12.5988785500
  C         4.6140277121        2.3066254759       12.9947900168
  H         5.1668243238        3.2787244965       13.1454033010
  C         3.5844337399        2.5494536787       11.8428487955
  C         4.0938355853        1.9843090189       14.4079281688
  C         4.2438753965        2.8425392572       10.5598614573
  H         2.9825241850        3.4035284993       12.0279410497
  H         3.0423749818        1.6396299586       11.7769388318
  H         3.8663219003        0.8906016879       14.4976649203
  H         3.1449313197        2.4545211397       14.6243489821
  H         4.7563048047        2.3160378715       15.1896428479
  C         4.5953966485        1.5344918968        9.8274695554
  H         3.7592329204        3.4708668283        9.8437861645
  H         5.1495171791        3.4060127541       10.7715495896
  C         5.3542097026        1.7668333444        8.5149197742
  H         3.7117548117        0.8934801272        9.7674930796
  H         5.2292675423        0.9504893086       10.5296370947
  C         6.6681250614        2.5110659091        8.5922086422
  H         4.6821597233        2.2105898528        7.8426462623
  H         5.4800226476        0.8184627039        8.0610120991
  C         7.8730983301        1.7910626129        9.1484985403
  H         6.8018519718        2.6954147222        7.5014552640
  H         6.5071080635        3.4806818465        9.0044249972
  C         9.1673056244        2.6993592113        9.2384001405
  H         8.0316737911        0.8617557072        8.6649812235
  H         7.7197441836        1.4777855003       10.1857959149
  C         8.7806720570        4.0282945788        9.8938449369
  C         9.5579123503        3.4019317224        7.9264837250
  C        10.3011537156        1.9398506451        9.9540419500
  C         9.0413588979        5.0929111112        9.0797411536
  C         8.3458006167        4.4054209581       11.1933424446
  C         9.5236935601        4.7360537718        7.8459807457
  C        10.0758570264        2.7956257704        6.7778676518
  H         9.9032631809        1.4615827939       10.8875312680
  H        10.6056490905        1.1481255156        9.3461428287
  C        11.4662279581        2.9216571097       10.3349379974
  S         8.5051111722        6.5509272551        9.8214529624
  C         8.2013587779        5.7644570608       11.2695235018
  H         8.3030674715        3.6317763636       11.9264943045
  C         9.8595824147        5.3931997823        6.6690455381
  H        10.1508887088        1.7559351780        6.8636117754
  C        10.3753390366        3.3871407121        5.6129236740
  H        11.1699393442        3.7732109220       10.9575124735
  H        11.9434901372        3.3457170662        9.4301537316
  C        12.5697522380        2.2214408878       11.1254776120
  C         7.6251066359        6.4577876099       12.5046724714
  C        10.2952974952        4.6983646829        5.5356152152
  H         9.7488469074        6.4839080367        6.5731129729
  C        10.9391879994        2.9945489070        4.4224215962
  H        13.4689474958        2.8028831421       10.9493512724
  H        12.7058165514        1.1819167907       10.8210302046
  C        12.3164092975        2.1218800978       12.5815071772
  C         7.5071010767        7.8506410848       12.6835597386
  C         7.3455890605        5.6620987383       13.6929204879
  C        10.6917788016        5.4169279497        4.3091935909
  C        11.0409004733        4.1280421782        3.6076687385
  S        11.1301821286        1.4902198405        3.6985099751
  H        11.9558847990        3.1282044807       12.8438015991
  H        11.4561662652        1.4051153693       12.9091284273
  C        13.6059476587        1.7757585574       13.3691339841
  N         7.7704960575        8.7764239886       11.6663256216
  C         7.2081586027        8.4538757231       13.8885322729
  C         6.9116225659        6.2513404855       14.8914362612
  H         7.4324043240        4.6013774232       13.5618519531
  C        11.9190081846        6.3312181756        4.6010164283
  C         9.5041544381        6.2407946409        3.6757097320
  C        11.4337470698        3.6966570422        2.3088676598
  C        11.6168041424        2.3245306555        2.2232765106
  H        14.2315918185        2.6302977885       13.5531432825
  H        14.2786532561        1.1863628041       12.8043247090
  C        13.2277795100        1.0836961911       14.6765845081
  S         7.7034998718       10.2800348288       12.2944808491
  N         7.2406805404        9.8841020695       13.8538276776
  C         6.9859469488        7.7503417852       15.0773653950
  H         6.6262919183        5.5777933846       15.6546604580
  H        11.7854347873        6.9577060150        5.5033269926
  H        12.0826132282        6.9770913954        3.7617506983
  C        13.1894940923        5.5328828369        4.8824851213
  H         9.0585105143        6.8588046216        4.4014340232
  H         9.9043463805        7.0000093357        2.9627301230
  C         8.4852388269        5.3709328404        2.8820181946
  H        11.5974636930        4.4248502355        1.5595733690
  C        11.8920939714        1.6252750324        0.8944283518
  H        12.4832455918        0.3480163009       14.5202915443
  H        14.1449740620        0.5724801006       15.1134721797
  C        12.8030065696        2.0093478667       15.8754851616
  C         6.8698018367        8.4556091221       16.3590482311
  H        13.0234830829        4.8767456564        5.6930672532
  H        13.3423625193        4.7462557191        4.1531231906
  C        14.5308579584        6.2983105882        5.1471253479
  H         8.0345655867        4.5494931005        3.4918117948
  H         9.0004333769        5.0106749352        1.9992063457
  C         7.5002719727        6.3199290253        2.1931190917
  C        11.9825049104        0.1689233807        0.7677981135
  C        11.9812051782        2.3739063213       -0.3278077867
  H        11.9862252139        2.6730082228       15.5946018892
  H        13.5590773213        2.7510407366       16.2034592298
  C        12.5414113481        1.2489147646       17.1844730879
  H         7.0233674196        9.4779715152       16.2679644840
  C         6.5207405098        8.0368952581       17.6366322606
  H        14.2943501055        7.2540143156        5.7000879837
  H        14.8756999575        6.5984878933        4.1706425763
  C        15.6281210034        5.5249981616        5.8290862838
  H         6.9769812509        7.0085212562        2.9006606433
  H         8.1195200457        6.9342728416        1.6319877338
  C         6.4225790536        5.5738375212        1.4459796854
  N        11.7971547880       -0.7223680149        1.8240948297
  C        12.2513195574       -0.4140397608       -0.4453951362
  C        12.2543848707        1.7827469617       -1.5756415901
  H        11.7926364933        3.4035408161       -0.3059021974
  H        11.5917680651        1.4765057189       17.5053840578
  H        13.3378589999        1.5350673287       17.8744100478
  H        12.5423540813        0.2030986480       17.0015659137
  S         6.2693079675        6.4039281869       18.1253041458
  C         6.5400557025        9.0389145694       18.7488735246
  H        15.1495867192        5.0664990437        6.7223498476
  H        15.9253106865        4.7837424252        5.0960045905
  C        16.8373511023        6.3319980798        6.3121605918
  H         5.7778574693        5.0225924562        2.0851006877
  H         6.9746745782        4.9040305838        0.7362057442
  C         5.5538146430        6.4908428577        0.5670995733
  S        11.7689505052       -2.2341346940        1.2314707364
  N        12.1386442042       -1.8236941267       -0.3204956983
  C        12.5016078154        0.2637095555       -1.6624508381
  H        12.3445352499        2.4016326257       -2.4345512297
  C         6.0790219085        7.0447307057       19.6807656363
  N         6.1753090338        8.3834121165       19.8722738284
  O         6.8460972812       10.1916894596       18.5825916448
  H        17.1240642385        6.9422911421        5.4304271178
  H        16.3793057327        6.9271577550        7.1106463004
  C        17.9482728314        5.4070847659        6.7437580045
  H         6.2355372190        7.1236406884        0.0278093917
  H         5.1265093094        5.9161995954       -0.2230586768
  C         4.5291119583        7.4428486204        1.2270158876
  C        12.7966510734       -0.5343683495       -2.8307398303
  S         5.5224268701        6.1180018397       21.0738299095
  C         6.2448629378        9.1889637453       21.0450038684
  H        17.6368665274        4.8064586027        7.5649949803
  H        18.1387638924        4.6770468643        5.9778933982
  C        19.1951915110        6.1981222357        7.1572247170
  H         4.6066877986        7.3996978537        2.3114195909
  H         3.5197894758        7.0439072593        1.0893350514
  C         4.4877469549        8.8372114716        0.6713003991
  H        12.7202970672       -1.6355258024       -2.7581734911
  C        13.1808240174       -0.1388834681       -4.0701005360
  H         5.4816201668        8.7504136878       21.6758739819
  H         5.9152798631       10.1744936658       20.8730039082
  C         7.6079917587        9.0892859740       21.6248964534
  H        19.6394952085        5.8878643054        8.1204417173
  H        18.6840472408        7.1585277485        7.3449121672
  C        20.1952615629        6.3117538607        6.0100398048
  H         5.4273174023        9.3765184891        0.7790129182
  H         4.1314426001        8.8064151748       -0.3370004087
  C         3.4161170067        9.6670168747        1.4201490823
  S        13.6956211214        1.4307323848       -4.5570015269
  C        13.3880557163       -1.2278404695       -5.0343645977
  H         8.2250982012        9.8672567139       21.1972150146
  H         8.0487824615        8.1288892384       21.4793070150
  H         7.6185288325        9.2882794957       22.7319255001
  H        21.1897457830        6.0964339132        6.3336771014
  H        20.0867192156        5.4436927531        5.5428414342
  H        19.9860027483        6.9765258975        5.2731775924
  H         3.6926027522       10.6570095894        1.7084770945
  H         2.6014309545        9.7493806683        0.7597831217
  H         3.1552148216        9.0707099529        2.3232013527
  C        14.0201031253        0.7071585326       -6.0986628282
  N        13.8996753377       -0.6443966125       -6.1403054581
  O        12.8675375300       -2.3638684992       -4.9994026961
  S        14.8883964495        1.5621095121       -7.3959447169
  C        14.1435519011       -1.4715098843       -7.3244807869
  H        14.1404611557       -2.4582128531       -6.9698709331
  H        15.1653936890       -1.3118129730       -7.5925756352
  C        12.9724852177       -1.2618194234       -8.2665343516
  H        13.3869498953       -0.6818425274       -9.0900625715
  H        12.1320612458       -0.7799520784       -7.7825722427
  H        12.6090577586       -2.2858404483       -8.5255630467
