352
 i =    46400, time =    23200.000, E =        97.9189110312
  H        10.3070082047        4.6560684117       31.3302105735
  C        10.1867238704        5.6039264711       31.8225845156
  H         9.1273299046        5.8603309379       31.7331749846
  C        10.9030052694        6.7534151751       31.0485322073
  C        10.5577842806        5.2301830550       33.3035686192
  C        11.5002295123        6.2715920320       29.7277664969
  H        10.2589511699        7.6318293991       30.8753542342
  H        11.7453652186        7.2219143298       31.6095144018
  H         9.9630339113        4.3976784135       33.6761027530
  H        11.6378094203        4.9699212048       33.3747213318
  H        10.3307421793        6.0848340453       33.9731926802
  C        10.4985550972        5.6062818528       28.7390283667
  H        12.1918354536        5.5417645145       30.0312206172
  H        12.0884425047        7.0255952042       29.3047531502
  C        10.8783739124        5.6887034111       27.2627629595
  H        10.4312705251        4.5477098875       29.0242152228
  H         9.3994687216        5.8278362101       28.9530551648
  C         9.8343184278        5.0841761359       26.3125639822
  H        11.8050619960        5.1825790649       27.1100875963
  H        11.1100333526        6.7204852791       26.9602438190
  C         8.5961345218        5.9283161698       26.0112180080
  H        10.3054028031        4.8489658650       25.3297705010
  H         9.6807684902        4.1108225430       26.8278309301
  C         7.3236692587        5.2511703248       25.3821355549
  H         8.3464272478        6.6730777213       26.8344209614
  H         8.8472307583        6.5766369116       25.1615455428
  C         6.8993541371        3.9643850278       26.0385394470
  C         7.6897207251        4.5754315298       24.1529292092
  C         6.1216386466        6.1599094287       25.1474638382
  C         6.9697089833        2.8836317142       25.1667421796
  C         6.4228515781        3.6471394769       27.3202559982
  C         7.5424259443        3.2431549207       24.0029763347
  C         8.1965958721        5.1135586627       22.9907439893
  H         6.4306680641        6.8662754619       24.3140676243
  H         5.9150733420        6.8595449651       25.9941159522
  C         4.8696025397        5.4814225985       24.7938384537
  S         6.5209423682        1.4463382567       25.9744214422
  C         6.1570445455        2.3104831638       27.4200149627
  H         6.3417164433        4.3338730356       28.0902703765
  C         7.9337848494        2.5749181698       22.9018808540
  H         8.3978921713        6.1347696669       22.8935966737
  C         8.4435238872        4.4534981462       21.7955626851
  H         5.1227532474        5.0399222449       23.8172384898
  H         4.6431036018        4.7220306612       25.4459758860
  C         3.6744652282        6.3528374410       24.6942553414
  C         5.7470349464        1.5853578581       28.6525494346
  C         8.4533741236        3.1007802923       21.7161712474
  H         7.8538638520        1.4895881338       22.9312688584
  C         9.0034157668        4.7888021260       20.6072529880
  H         2.8852245628        6.1109102468       23.9731817170
  H         3.9188580392        7.3626626903       24.3383362499
  C         3.0705235651        6.6107646130       26.0671495151
  C         5.8382895841        0.2022493379       28.9451964426
  C         5.3454779041        2.4497949711       29.8450258523
  C         8.9423503241        2.4473911503       20.4436837855
  C         9.2889370330        3.7234584613       19.7664632169
  S         9.3006577477        6.3413506069       19.9026295084
  H         2.4136221543        7.5167048358       25.9519286159
  H         3.8667446758        6.8374361716       26.7519788151
  C         2.1851851723        5.4508077796       26.5517740011
  N         6.3491893594       -0.7575319803       28.0809176090
  C         5.5329318612       -0.3774333973       30.1870446750
  C         5.0132126779        1.8867672298       31.0325474537
  H         5.4542006270        3.5605710333       29.7407817246
  C         7.8792273163        1.7932191673       19.5657926485
  C        10.1585155682        1.5077324455       20.6488859370
  C         9.8249612987        4.1284768305       18.5376823845
  C         9.8487805362        5.5604359060       18.4340222515
  H         1.4940124891        5.1970553296       25.6918240391
  H         2.7321920198        4.5173796215       26.5440710258
  C         1.4268651122        5.6956868823       27.9080819620
  S         6.0908672966       -2.2355312295       28.6927812911
  N         5.7190528866       -1.7295105783       30.1926616078
  C         5.1407312727        0.4539822817       31.2445354974
  H         4.5898039125        2.4325466604       31.8319494212
  H         7.5660413346        0.8745611273       20.1154039774
  H         8.3376702183        1.4170459761       18.6942580263
  C         6.6256711057        2.6202890010       19.1371466166
  H        10.5047513273        1.1475632195       19.6705663875
  H         9.7674760290        0.7692075228       21.3249917012
  C        11.3459764893        2.2923397871       21.2575389502
  H        10.1467318519        3.3649874200       17.7964425621
  C        10.2500897871        6.3892257016       17.2496229314
  H         0.5838995857        4.9888243369       27.9956823004
  H         1.0382499402        6.7162485246       27.8435003276
  C         2.4455334382        5.6316815340       29.0764855984
  C         4.8896102885       -0.1954173476       32.5430712458
  H         6.9253008920        3.5549483720       18.7817117885
  H         6.0429561811        2.7944709769       19.9794417327
  C         5.9758302415        1.7633617208       18.0739018812
  H        10.9723815437        2.8727378550       22.1428456864
  H        11.5891760123        3.1751211776       20.5718657489
  C        12.5537291666        1.5273174209       21.7384370263
  C        10.1644052448        7.8134114160       17.1336848147
  C        10.5771381617        5.6246371819       16.0104471864
  H         3.1247396007        4.8358147762       28.9482776383
  H         3.0039380664        6.5420993139       29.2871892911
  C         1.7152811606        5.2760276574       30.3512212985
  H         5.0172399687       -1.2592882432       32.5372921267
  C         4.5126270877        0.2565069597       33.7588904362
  H         6.0992037232        0.7027807096       18.1200007023
  H         6.5299896088        1.9883606279       17.1555786346
  C         4.4934004967        2.1523289244       17.7675688943
  H        12.3518263727        0.7387905856       22.5401304764
  H        12.9159123736        0.9275458632       20.8795377207
  C        13.5772233178        2.6142846109       21.9993767402
  N         9.7996505119        8.7428815196       18.1507498232
  C        10.3823774617        8.4540228363       15.9685669199
  C        10.7410595500        6.2842550482       14.7969390675
  H        10.6542343939        4.5778737762       15.9459337255
  H         2.3681987863        5.0749386451       31.2169932403
  H         0.9918345746        6.1283135252       30.4563976411
  H         1.0400097193        4.4962585665       30.0078211930
  S         4.1157985409        1.8451697643       34.2928462233
  C         4.4099472042       -0.7541326338       34.8228371997
  H         4.3084279084        3.1464592960       18.0636919227
  H         4.3132391048        2.1745808165       16.6896104881
  C         3.4649318754        1.2066859673       18.5018392320
  H        13.1026813454        3.2621442648       22.7328830995
  H        13.6945812653        3.2239181954       21.0917603836
  C        14.9891466150        2.0956283984       22.3173986603
  S         9.7718371505       10.2204559590       17.5116491782
  N        10.3343840254        9.8179579795       16.0795883229
  C        10.7726530147        7.7919819071       14.7859460685
  H        10.8993763255        5.5876198507       13.9795407352
  C         3.9507017252        1.2077971206       35.9053500159
  N         4.0436125479       -0.1453232990       35.9976926389
  O         4.7267330814       -1.9541065488       34.7377524004
  H         2.5357239203        1.7072985194       18.7866447979
  H         3.7094390462        0.7712302603       19.4075554826
  C         3.0815906678       -0.0190194634       17.5469530331
  H        14.9553726954        1.2546059351       23.0104568219
  H        15.4763522280        1.8786459484       21.3891499630
  C        15.9012700608        3.1751311433       22.9238207813
  C        11.0573838457        8.6399623283       13.6893315544
  S         3.5608193276        2.1994846402       37.3319151270
  C         4.1305016082       -0.8168055952       37.3133193204
  H         2.5678341085        0.2237251827       16.7058523211
  H         4.0548082204       -0.3945319240       17.2934516374
  C         2.2571583557       -1.1130567273       18.2690103881
  H        15.6647553541        3.2901513230       23.9578637780
  H        15.6845545650        4.1375035044       22.4439783457
  C        17.4463667941        2.7523595419       22.7832573949
  H        10.8766925897        9.6549560898       13.8072506806
  C        11.4742356523        8.2804465848       12.4310243522
  H         3.5305026159       -0.2886426289       37.9818035852
  H         3.6906965196       -1.8412699664       37.3077411339
  C         5.6144514791       -0.8002961703       37.8210122747
  H         1.4821139051       -0.7538256563       18.9848489733
  H         3.0430838629       -1.7348337917       18.7325671298
  C         1.4867040000       -2.0204967912       17.2381694671
  H        17.5903148243        2.2712086027       21.8702529882
  H        18.1754606094        3.6073905703       22.7811129557
  C        17.9324412288        1.7890671394       23.8901639890
  S        12.1430776776        6.7936707691       11.9941931888
  C        11.5731459227        9.3566882863       11.4527420179
  H         6.3364932861       -0.8120349996       36.9826756030
  H         5.8599163745       -0.0189730902       38.5329666549
  H         5.8967630673       -1.8157792878       38.1812602342
  H         2.1506583216       -2.7307301277       16.7287716321
  H         0.9750725342       -1.4615240071       16.4089333671
  H         0.7366567845       -2.6304409109       17.6684562734
  H        18.3311965024        2.3008318678       24.7856127407
  H        18.7789081147        1.3065906275       23.5485537781
  H        17.2366869506        1.0809000659       24.2840953074
  C        12.5303752312        7.5293470738       10.4859027892
  N        12.1547178636        8.8156655335       10.3727012905
  O        11.4524744894       10.5402613488       11.7547845114
  S        13.2428037605        6.7183557655        9.1700945863
  C        12.3088229767        9.5542051599        9.0909441873
  H        12.4097915258       10.6160204760        9.3766009865
  H        13.2618940055        9.3032129641        8.7440344339
  C        11.2428923809        9.2662067214        7.9849857981
  H        11.2245416718       10.1258358264        7.3470245643
  H        11.4742650055        8.4308709796        7.3310569153
  H        10.2293414862        9.0918418066        8.3863826032
  H         5.0062239629        2.7386950824       12.5576725220
  C         3.9213466729        2.6093600680       12.3501865837
  H         3.4570501176        3.6504158635       12.1498234426
  C         3.6651445007        1.6175047561       11.2567510206
  C         3.4314356478        2.0606691940       13.6406507941
  C         4.2122740654        2.1120459211        9.9248180542
  H         2.6555873943        1.3867739078       11.1681018926
  H         4.1038722251        0.7543224613       11.6155528592
  H         2.3446082689        1.9148832684       13.6577034002
  H         3.6369785603        2.7645886618       14.4830573769
  H         3.7785970246        1.0248051171       13.9075489596
  C         5.4850928687        1.3199689151        9.7469935723
  H         3.4553116302        1.8977431913        9.2405410214
  H         4.3504591957        3.2358682390        9.9867809256
  C         6.1146666827        1.4888566745        8.3222309064
  H         5.3527345342        0.2793954777        9.8312018147
  H         6.1772558802        1.5560975552       10.5415006637
  C         7.3000379718        2.4821601668        8.4896096824
  H         5.2582361411        1.8164338029        7.6723631741
  H         6.2895595503        0.5189792395        7.8223680546
  C         8.5015592718        1.9894312507        9.2596132280
  H         7.5217146926        2.6685090849        7.4486516815
  H         6.9596183901        3.4166263677        8.8735744694
  C         9.6857053590        2.9604250032        9.1603851767
  H         8.7980908291        1.0957003320        8.6589977683
  H         8.1997208358        1.6750787247       10.2462235777
  C         9.2314067499        4.3119942220        9.8387963839
  C         9.9885811764        3.6450148549        7.8396779094
  C        11.0369472213        2.4206792647        9.7747751114
  C         9.3137036354        5.3868135528        8.9750022863
  C         8.7642317213        4.6835964873       11.0916201624
  C         9.8395886952        4.9827436311        7.7401828733
  C        10.4715428823        3.0000218719        6.6812952652
  H        10.7001394228        1.9241573686       10.7175507290
  H        11.4537101634        1.6759119711        9.1070393370
  C        12.0587109426        3.4420330843       10.2064500101
  S         8.8956347899        6.8462121043        9.7267196925
  C         8.3912619443        6.0050681891       11.1855185373
  H         8.7172923611        3.9303801134       11.8426684185
  C        10.0986376964        5.5862072226        6.5327527224
  H        10.6044279688        1.9578019847        6.6465898253
  C        10.7094529808        3.7216878760        5.5237896131
  H        11.6691769236        4.3714010984       10.5842947257
  H        12.7229700268        3.7040382078        9.3524173051
  C        13.1180635876        2.9047247345       11.2867240244
  C         7.8968753350        6.7136836386       12.4179000448
  C        10.6232228546        5.0803342423        5.3802103770
  H         9.8722788458        6.6644728249        6.5648202136
  C        11.0345391814        3.3348426218        4.2441433517
  H        14.0915939582        3.4841999642       11.2524231392
  H        13.3963941072        1.8190473079       11.1175410287
  C        12.5530072619        2.8735161255       12.6904181238
  C         7.9660265701        8.1310545690       12.6496659668
  C         7.2547172180        5.9090050097       13.4458488717
  C        10.8235894056        5.7759298429        4.0987493707
  C        11.2140551616        4.4072029023        3.4232785660
  S        11.3619983179        1.7897027357        3.5158584214
  H        11.9893274130        3.8156070674       12.8719669290
  H        11.7261609065        2.0995822743       12.6685226641
  C        13.6466073421        2.4017924589       13.7217341950
  N         8.4164556116        9.1620723274       11.7906762375
  C         7.5741010258        8.6466570696       13.8925451139
  C         7.0784980939        6.4520647976       14.7130404482
  H         7.0352855183        4.8757495982       13.3471700043
  C        12.0890144196        6.6137103996        4.1190685784
  C         9.6259990067        6.4450037596        3.2766201283
  C        11.6482777376        3.9901652236        2.1238120197
  C        11.6537321116        2.6066960236        2.0004014441
  H        14.5598229270        2.9721075433       13.7440045047
  H        13.8306962528        1.3169934945       13.5394351019
  C        12.9948099850        2.5412374475       15.1384224568
  S         8.1107341506       10.5963638300       12.4633036769
  N         7.6708556051       10.1035593729       13.9185342350
  C         7.2164234939        7.9050911819       15.0307025082
  H         6.6714310064        5.8074043495       15.5322668203
  H        11.7796207205        7.5573031207        4.6097307876
  H        12.3164675047        6.7384389826        3.0958769683
  C        13.2711063215        5.9740651678        4.9039446368
  H         9.2616779754        7.3165051707        3.8648472139
  H        10.0414467928        7.0846234970        2.4822383827
  C         8.4824583654        5.5376270237        2.8409953269
  H        11.7820935461        4.7240015132        1.3411608740
  C        11.8270335419        1.8501322525        0.7275251581
  H        12.5198945797        3.5165840913       15.1740066514
  H        12.1937595660        1.7573962030       15.3108505881
  C        13.9864643835        2.3115723444       16.2876424109
  C         6.9441970061        8.5956711486       16.2542304922
  H        13.1021644270        5.8322678825        6.0004910776
  H        13.4627794313        4.9990716637        4.4807584507
  C        14.6024034733        6.7053832910        4.8283449739
  H         8.1015856588        5.0045946707        3.6753497342
  H         8.9922780845        4.8348200810        2.2049079050
  C         7.3789486672        6.2774826882        2.1094386109
  C        11.8468721572        0.4124490608        0.5749630188
  C        11.9474267073        2.6042110788       -0.5322089837
  H        14.8942057487        2.8847072852       16.0879861774
  H        14.1411490475        1.1991574221       16.4866620962
  C        13.4032506366        2.9012254799       17.5920554824
  H         7.1610850676        9.6470494527       16.3157251628
  C         6.6284090611        8.0806323863       17.5711286161
  H        14.4574141438        7.5945367286        5.4190073149
  H        14.8530362141        7.0200641272        3.8166232722
  C        15.7260623229        5.8156996655        5.3880583319
  H         7.3033231626        7.2922833104        2.4870537562
  H         7.6021414320        6.4207129037        1.0327517933
  C         6.0387352470        5.5614512988        2.2868439554
  N        11.5604628366       -0.4999737867        1.6622744344
  C        12.1059326703       -0.2337272130       -0.6010648378
  C        12.1430890989        1.9516796004       -1.7421435693
  H        11.9963502416        3.7141754550       -0.4201981133
  H        12.4330301572        2.4716610454       17.6901030362
  H        13.2729013966        4.0203992821       17.3583604667
  H        14.1206224207        2.7834099157       18.2774621494
  S         6.3030747395        6.4599901874       18.0287212692
  C         6.4774889262        9.1225694548       18.7003140794
  H        15.2900616727        4.9154533615        5.7424150046
  H        16.5319794924        5.5744143570        4.7287258649
  C        16.5240420823        6.4471714773        6.5039261828
  H         5.6813439747        5.6184930944        3.3120560740
  H         6.2430624082        4.5020299413        2.0119574376
  C         4.9739774030        6.1976584053        1.4092678736
  S        11.5333663805       -2.0017021736        0.9821878537
  N        11.8282348664       -1.5600332667       -0.5306977708
  C        12.2409037037        0.4646300303       -1.8166025057
  H        12.1888282937        2.5011606145       -2.6488982480
  C         6.0407425115        7.1061532011       19.6243354245
  N         6.0348808309        8.4953458119       19.7851842601
  O         6.8425293174       10.2840404251       18.5515110710
  H        16.9982354461        7.3305730560        6.0830155022
  H        15.8161791158        6.7755859313        7.2839757493
  C        17.4830585909        5.4068820918        7.1845446217
  H         5.3694540239        6.3668942810        0.4263142434
  H         4.1037100770        5.5649254662        1.2377768084
  C         4.4402954153        7.5999974158        1.9341710146
  C        12.4884823451       -0.2772194237       -3.0014824081
  S         5.5921659352        6.1262298263       21.0120880473
  C         5.9552207572        9.2401602874       20.9803378240
  H        16.9194600572        4.9281032689        7.9768309782
  H        17.6247062987        4.5250091396        6.5396357689
  C        18.7329112178        6.0254891145        7.6380249430
  H         4.9645100882        7.8020161937        2.8980386462
  H         3.3486831342        7.5014659457        2.0263778615
  C         4.7190404967        8.7385228624        0.9795611081
  H        12.4112280738       -1.3423571086       -2.8285756333
  C        13.0131133786        0.0976788938       -4.2122896823
  H         5.1780092803        8.9499868177       21.6392778008
  H         5.6844894915       10.2506332570       20.6770758497
  C         7.2849765132        9.1982017400       21.6892076182
  H        19.1674330233        5.5628744159        8.5125292894
  H        18.6705915793        7.0768683389        7.8365929222
  C        19.8560567324        5.9587226329        6.6147920541
  H         5.7645230274        8.7359809614        0.6809283021
  H         4.0909571043        8.7335100072        0.0315017172
  C         4.4827289407       10.0285801145        1.6963191088
  S        13.2999726326        1.6861872094       -4.7295247556
  C        13.3033862910       -1.0086081349       -5.0961999377
  H         7.9601401129        8.6808848182       21.0245943688
  H         7.0824214828        8.5095076402       22.4907246475
  H         7.6376041533       10.1671321257       21.9379286352
  H        20.0820443122        4.9328738243        6.1093677979
  H        19.7056471622        6.6133845796        5.7496905973
  H        20.7765803838        6.3187679869        7.0233260755
  H         5.3303298198       10.2456093529        2.3389180457
  H         4.2477704376       10.7990245351        0.9180153180
  H         3.7583487025        9.8406481914        2.4927341648
  C        13.6631506901        0.8513246989       -6.2246497514
  N        13.7408367527       -0.4782553731       -6.2220552791
  O        12.9415139995       -2.1865834362       -4.8918725423
  S        14.2104946221        1.6801947594       -7.6329339161
  C        13.9860481153       -1.3185767612       -7.3535111662
  H        14.2736306730       -2.3467674834       -7.0160860550
  H        14.8570747924       -0.9172296314       -7.8842891608
  C        12.8095546128       -1.4019734352       -8.2942380501
  H        12.8386534025       -2.2957578964       -8.9196216458
  H        12.8712323862       -0.5736152780       -8.9418175235
  H        11.8229575951       -1.4553015198       -7.7578054277
