352
 i =    47100, time =    23550.000, E =        98.0240949275
  H        10.1084267552        5.3366862747       31.8204022115
  C        10.5279356813        6.0806747176       32.4815571482
  H         9.7927575233        6.5367494379       33.0696566959
  C        11.1394073488        7.1659922019       31.5885888197
  C        11.6475326750        5.4992861819       33.3538077281
  C        11.4966729474        6.5327353392       30.2637186994
  H        10.3788703443        7.9046003577       31.4196095750
  H        12.0091318217        7.6493931368       31.9939538830
  H        11.6353985363        4.4234962220       33.5461008885
  H        12.6187832842        5.6653338111       32.9080113842
  H        11.6020562271        5.9639038507       34.3488413993
  C        10.2949382934        6.7670210370       29.2394620264
  H        11.5290895661        5.4816963155       30.2418829615
  H        12.3196293498        7.0069117733       29.8668130674
  C        10.5563707605        6.1757557271       27.7775847358
  H         9.4311578855        6.2403088608       29.7067131917
  H        10.0750932125        7.8368794678       29.1710169513
  C         9.3215531455        5.3977889914       27.2210487519
  H        11.3920538746        5.4672041332       27.9733385054
  H        10.9855690560        6.8984069404       27.0903186119
  C         8.2670812871        6.2744174533       26.5430986109
  H         9.6941265132        4.7234085315       26.4800178622
  H         8.8170826419        5.0304823962       28.0884728288
  C         7.2313897908        5.4571326484       25.7368602190
  H         7.7475779678        6.7756853882       27.3303433745
  H         8.7501274760        7.0158899989       25.8774567666
  C         6.7886329336        4.1309612888       26.3831472343
  C         7.7162824132        4.7248089504       24.5913632596
  C         6.0940437241        6.4067123660       25.4180145686
  C         7.0886232939        3.0010270625       25.6289936562
  C         6.1292125128        3.7784882606       27.5655669624
  C         7.7557780943        3.3555100617       24.5022081841
  C         8.3336812533        5.3359489888       23.4852240827
  H         6.3813443038        7.2600466161       24.7852747135
  H         5.7894142974        6.8483400902       26.3889347457
  C         4.9269606047        5.8337197060       24.5885149113
  S         6.5277924019        1.4474524853       26.2120756003
  C         6.0312346700        2.4011925813       27.6203872734
  H         6.0811210237        4.6363797541       28.2392712254
  C         8.1971386234        2.7308719146       23.4294963853
  H         8.2638312408        6.4022907778       23.6688738252
  C         8.7834630576        4.6741087843       22.3579421603
  H         5.3118197588        5.6977142167       23.6105307252
  H         4.6409971803        4.9023364099       25.1271750167
  C         3.5877022974        6.6850103343       24.4439776598
  C         5.6854220045        1.7050062000       28.9240077962
  C         8.7621373528        3.3185901690       22.2952797102
  H         8.0402512632        1.6842099745       23.4148064945
  C         9.1181101189        5.0077588888       21.0549560035
  H         2.8938362252        6.2044245186       23.7395210727
  H         3.7580195203        7.6895029113       24.0879909128
  C         2.8512755212        6.8191005437       25.8381334362
  C         5.9415577551        0.3270805524       29.2467337896
  C         5.3147872671        2.5753391462       30.0593176353
  C         9.2752032806        2.5806616753       21.0543439523
  C         9.4916345281        3.9378593199       20.2694720775
  S         9.2684052596        6.5168116963       20.1829437580
  H         1.9859607884        7.4521839637       25.7923852094
  H         3.5563885532        7.2202983835       26.6128050477
  C         2.2682279301        5.4091365700       26.3950174539
  N         6.3098754272       -0.7043601629       28.3412519126
  C         5.6199167530       -0.2303888123       30.4628392177
  C         5.1634209509        2.0594360968       31.3784552335
  H         4.8949215499        3.5378756294       29.9026938957
  C         8.1468981475        1.8430267116       20.2894061883
  C        10.6485195043        1.8242963025       21.4316418275
  C         9.8410321908        4.3003010920       18.9085106930
  C         9.8068820656        5.6644189798       18.7262163448
  H         1.3782488393        5.2023399145       25.8675770500
  H         2.8284637674        4.4673140211       26.2817609142
  C         1.6247485033        5.6734372048       27.6964774602
  S         6.2065701403       -2.1408729789       29.0763995507
  N         5.5804597678       -1.6123938015       30.4807659834
  C         5.3689708232        0.6216737693       31.6108911392
  H         4.8713379245        2.7518674164       32.1270903072
  H         7.9079098080        1.0313573744       20.8973485656
  H         8.5500869138        1.2900743206       19.4141897192
  C         6.7928062504        2.5251969022       19.9899463558
  H        10.9297030153        1.1464560838       20.6161085569
  H        10.5061668858        1.1472695744       22.3089927918
  C        11.8138684196        2.8279544887       21.6212791139
  H        10.1547487837        3.5440053245       18.1800308296
  C        10.1427462468        6.3518191097       17.4499148901
  H         0.8950057455        4.8824027606       27.8033759291
  H         1.1566622237        6.6671127762       27.6626777283
  C         2.6693898313        5.5163525131       28.8264638476
  C         5.2546076054       -0.0796211941       32.8777120766
  H         6.7972827719        3.5605515005       20.1328807728
  H         6.2147202347        1.9955372125       20.6032273281
  C         6.5362870906        2.2993156397       18.5634372882
  H        11.5613590109        3.4925127412       22.4429299476
  H        11.9478901456        3.4761085227       20.7418032795
  C        13.1094389523        2.1057724342       21.7575383839
  C        10.3063750265        7.7253380485       17.2202449154
  C        10.4803714809        5.4445230750       16.2889560801
  H         3.2703999573        4.6179321125       28.6176547427
  H         3.3737834664        6.2801508429       28.7190456530
  C         2.0452632700        5.4010114645       30.1930464001
  H         5.4802380580       -1.1564539775       32.9349444547
  C         4.7675527162        0.3040699456       34.0928335511
  H         6.7952383385        1.2516397101       18.3029675756
  H         7.0551955776        2.9761312130       17.9537578039
  C         5.0422816061        2.5331225894       18.2611677423
  H        13.0450631459        1.2936156085       22.4986186328
  H        13.4699326931        1.8136195204       20.7260253531
  C        14.1848006353        2.9074422637       22.4540910323
  N        10.0599747005        8.7149509772       18.1834835480
  C        10.6907352818        8.2930588386       15.9849479518
  C        10.8611832620        6.0025108838       15.1082346147
  H        10.2490380388        4.3880914135       16.3341621408
  H         2.7910866153        5.2918147894       30.9711771803
  H         1.5301480829        6.2965252034       30.3761026516
  H         1.2257338005        4.6869654822       30.3221874193
  S         4.0637036224        1.8360444631       34.4523573560
  C         4.8147380646       -0.6716438136       35.1458174859
  H         4.8050240216        3.5316596825       18.6754330376
  H         4.9105134522        2.6840668761       17.2160467586
  C         4.0452357587        1.5643435220       18.8246765080
  H        13.9195928153        3.2519433091       23.4577240047
  H        14.2861113907        3.8175210694       21.8899281971
  C        15.4705996707        2.1301891140       22.3938139273
  S        10.1184280843       10.1493286262       17.4599945140
  N        10.6817130764        9.6618558150       16.0016851295
  C        10.9212422337        7.4862507616       14.8566677494
  H        10.9358854362        5.3995233109       14.2211432423
  C         3.7908774110        1.2045914255       36.0017383733
  N         4.3087794393       -0.0468138659       36.2456625349
  O         5.1609702400       -1.8359555516       35.0625399936
  H         3.2899946564        2.1428104652       19.2425605553
  H         4.4525536567        0.8801051066       19.5871069344
  C         3.5347909929        0.6342859932       17.6945202804
  H        15.4103292392        1.3907852443       23.1849824733
  H        15.6195028050        1.6074827723       21.4210660050
  C        16.7267392537        2.9340916547       22.6141495654
  C        11.1451101870        8.2086589102       13.6242502869
  S         3.3702350630        2.2958294418       37.3520937393
  C         4.3085342034       -0.7401537207       37.5461236830
  H         2.9672241097        1.1642209896       16.9415183723
  H         4.3525038915        0.1428907321       17.3772192688
  C         2.4866377669       -0.4104030886       18.1576089248
  H        16.7204521808        3.4052142908       23.5730566831
  H        16.7250685538        3.7225283915       21.9277706557
  C        17.9814908502        2.0815998792       22.5460436191
  H        11.0175974245        9.2542106978       13.6723082627
  C        11.6567089937        7.8801486225       12.3629017499
  H         3.8302675772        0.0006799587       38.2277856911
  H         3.7712689472       -1.6684659271       37.5440370396
  C         5.7095322754       -0.8442300078       38.1130763271
  H         1.4925579758        0.0785649424       18.1950741521
  H         2.6424956447       -0.7672572410       19.2002701572
  C         2.3471254569       -1.5355412580       17.1919962628
  H        17.9658021279        1.3089800027       21.7489565977
  H        18.8521398133        2.6437836203       22.4235770478
  C        18.1765793857        1.3448496128       23.8602904013
  S        12.2944596704        6.4108095702       11.9260702903
  C        11.7316103649        8.9720312443       11.3536407408
  H         6.5040567715       -0.2433414660       37.6973934618
  H         5.6803107276       -0.7381551648       39.2130219803
  H         6.0331555620       -1.8395121826       37.8763771310
  H         2.7404434915       -1.2883610418       16.2113027056
  H         1.2799745458       -1.7726001358       17.0779441225
  H         2.9010596783       -2.4613804330       17.5724102411
  H        18.0434003680        2.0451422998       24.5944310552
  H        19.2175700155        0.9058503883       24.0930740863
  H        17.4081384583        0.5318659923       24.0041876975
  C        12.4156324049        7.1005875530       10.2402661057
  N        12.2895961536        8.4658735806       10.2303050546
  O        11.0969289529       10.0151605489       11.5090804502
  S        13.3201882097        6.3709231819        8.7875629510
  C        12.5140995427        9.3414911778        9.0547521035
  H        12.6849399253       10.3454108336        9.3428154102
  H        13.4299484177        9.1167415265        8.5165686832
  C        11.4147220026        9.2685317014        8.0308130129
  H        11.3323939402       10.1588404041        7.4080275655
  H        11.4315873792        8.4265571204        7.3258381801
  H        10.4572742017        9.1408652623        8.5107501298
  H         4.2330506173        3.4461642570       13.0316527733
  C         3.3459384149        2.7401192786       12.8611481424
  H         2.3950923631        3.3342085176       12.8360260440
  C         3.6294828827        1.9941674068       11.5337694662
  C         3.4167845808        1.9055898008       14.0421244250
  C         4.5632581919        2.6101042121       10.4511345219
  H         2.6517071353        1.9503663962       11.0484872556
  H         3.8285246015        0.9396196112       11.6909737774
  H         2.7289477892        1.0730227263       13.9782705221
  H         2.9839541386        2.5067892325       14.8366851561
  H         4.3559904167        1.5184943695       14.3064176997
  C         4.9305887418        1.3727549923        9.5862625092
  H         3.8700584806        3.4214046268       10.0722178986
  H         5.4188003608        2.9970734313       10.9497232665
  C         5.6196804952        1.7596513643        8.2431468300
  H         4.0569137303        0.8084215067        9.3253741921
  H         5.6129673424        0.7162059987       10.1056630694
  C         6.8388423098        2.6293490778        8.4410302097
  H         4.8788282462        2.2098649364        7.5897830514
  H         5.8515488443        0.7727465548        7.7976301486
  C         8.0860785944        1.9644768045        8.9375543378
  H         7.1611019324        2.9669676356        7.4776925818
  H         6.5969797424        3.5544833625        8.8757149592
  C         9.3299847984        2.8865641805        9.0802601928
  H         8.2820351377        1.0854508660        8.3148748514
  H         7.7022463837        1.4676130816        9.8703250093
  C         9.0121763993        4.2461470344        9.8004240520
  C         9.6516682047        3.6500756858        7.7782278111
  C        10.5802677234        2.2039570080        9.7429035528
  C         9.1001105582        5.3675892442        8.9524649961
  C         8.6620860262        4.6424996164       11.1248837483
  C         9.5456116621        5.0248839616        7.7218757419
  C        10.0824227013        3.1137547965        6.6146088796
  H        10.1810418452        1.8055446185       10.6487253051
  H        10.8914244373        1.3030995889        9.1618820389
  C        11.8682815187        3.0949547249        9.9416654903
  S         8.7760247535        6.8608329766        9.7163717055
  C         8.4831761283        6.0124274073       11.1682104376
  H         8.5567307880        3.8769137053       11.9107917096
  C         9.9088666528        5.6766033377        6.5744923782
  H        10.1110841118        2.0136584157        6.5287724992
  C        10.4813931771        3.7171702895        5.5066169419
  H        11.5087988212        4.1216029250       10.0962389168
  H        12.4462335530        3.1770035972        9.0671006867
  C        12.8364508964        2.8990037752       11.1310169211
  C         8.0106595088        6.7006397815       12.4401304424
  C        10.4436407362        5.0940813205        5.4144081656
  H         9.8986223324        6.7385457368        6.5707926337
  C        10.9086430143        3.3068459101        4.2195684330
  H        13.5241851291        3.8112926951       11.1852228679
  H        13.5040670869        2.0242043736       10.9419357308
  C        12.0775615019        2.6945499159       12.4111138040
  C         7.9706113060        8.0853436991       12.6889940964
  C         7.4190631323        5.8701768408       13.4519229363
  C        10.9001531008        5.7451001399        4.1255072019
  C        11.1550360762        4.3627389296        3.4022605403
  S        11.0901156458        1.8301901812        3.4081626296
  H        11.3263133092        3.5168181305       12.5913575512
  H        11.3849763281        1.8755977327       12.3994415416
  C        13.0285115865        2.6390545696       13.6396142380
  N         8.3031092783        9.1226373022       11.7622977337
  C         7.7520491978        8.6058398956       13.9596878155
  C         7.0344520516        6.3604941465       14.6656691407
  H         7.2626538441        4.8104982628       13.3069710566
  C        12.2312124286        6.5565931626        4.1829469736
  C         9.6767435303        6.5600500639        3.5167408184
  C        11.6468602895        4.0151627427        2.1074517122
  C        11.6472618275        2.6691901724        2.0233702037
  H        13.1870600106        3.6874122755       13.8044267773
  H        13.8845103389        2.1272113226       13.2990541032
  C        12.3859021448        2.0575358072       14.8593566597
  S         8.2237150721       10.5876435079       12.5272533446
  N         7.7759123367       10.0160841083       13.9805511060
  C         7.3122260658        7.8332229357       15.0009522461
  H         6.5646974073        5.6625015458       15.3602078049
  H        12.0394475696        7.5843905091        4.4843480440
  H        12.5769273993        6.5974412750        3.0909947320
  C        13.2671100334        5.9063142875        5.0010840501
  H         9.3416679938        7.3617127848        4.1383451350
  H         9.9583694303        6.9860458173        2.5221491972
  C         8.3746387319        5.7112482338        3.2152215624
  H        11.8786493453        4.7910013613        1.4090196677
  C        12.1305918060        1.8740384952        0.8198339218
  H        11.6796517214        2.8177780881       15.1636106393
  H        11.7811182863        1.2023234372       14.7323351962
  C        13.3990052599        1.8872372875       15.9872690243
  C         7.0885153755        8.4474620615       16.2733963831
  H        13.0545313575        5.9606926317        6.0387759306
  H        13.3153926421        4.8023739116        4.7210432708
  C        14.6616864528        6.5063798875        4.8717472877
  H         7.9024516772        5.4092818615        4.1619254003
  H         8.6694125389        4.8457571828        2.6531250311
  C         7.3907107675        6.6151546667        2.4954312875
  C        12.0903573525        0.4896350437        0.6071211037
  C        12.3567235599        2.6185846420       -0.4404549005
  H        14.3893457924        2.3516852318       15.6452684403
  H        13.6906273943        0.8704784131       16.2543525855
  C        13.0694650945        2.5569088924       17.2755136306
  H         7.3486233502        9.4546130676       16.3543869506
  C         6.6831430307        7.9320400353       17.5035903135
  H        14.6595775861        7.4067712836        5.4245252658
  H        14.9183975594        6.8113129228        3.8650564898
  C        15.6794476668        5.5128679287        5.4647225897
  H         7.2119050661        7.4765376992        3.1641589716
  H         7.6303765449        6.9574731952        1.5148488716
  C         6.0820572869        5.8522079574        2.5096624199
  N        11.8394521899       -0.4285990259        1.6951261544
  C        12.3432372244       -0.1435556255       -0.5819399452
  C        12.6295520913        2.0011129782       -1.6804625200
  H        12.3241151798        3.6772983087       -0.3617256689
  H        12.3410565837        1.9067972897       17.7555462488
  H        12.7097065609        3.4818229191       17.1474376166
  H        14.0052601406        2.7510260231       17.9089217990
  S         6.3842549341        6.3688073953       18.0297632382
  C         6.4420924995        8.9930980689       18.5778523572
  H        15.2808637017        4.9632899690        6.3220338283
  H        16.0390398128        4.8584562474        4.7353079210
  C        16.9568266956        6.2579549505        6.0028994927
  H         5.6230769774        6.1102534084        3.4812884072
  H         6.1960046854        4.7602564515        2.5316859240
  C         5.0701340836        6.3009643155        1.4668420248
  S        11.8163052800       -1.9361209092        1.0685064650
  N        12.2500836096       -1.5170089861       -0.4608908331
  C        12.6942087895        0.5250043031       -1.7867523043
  H        12.8086984339        2.5496813275       -2.6021366316
  C         5.9129521080        7.0263854505       19.5236979916
  N         5.9516225602        8.3826775250       19.6549811957
  O         6.6783102011       10.2137256852       18.4450781268
  H        17.6414073214        6.5477700971        5.1774123672
  H        16.7776059910        7.0851274460        6.6523588665
  C        17.7677701800        5.2730397972        6.7765035588
  H         5.6145267379        6.2166521568        0.5120318458
  H         4.3621462699        5.5394102078        1.4896365471
  C         4.4022062464        7.6056465889        1.8737789326
  C        13.0210956893       -0.2041486020       -2.9803540077
  S         5.5576542104        6.0320463926       20.9579161041
  C         5.8334288611        9.1262012758       20.9159774210
  H        17.1330788107        4.8163687622        7.5818156556
  H        17.9643179221        4.4572553873        6.0584789354
  C        18.9207565046        5.8881610115        7.4500909212
  H         4.8351032651        8.0647384074        2.7778687279
  H         3.3750413123        7.4319174645        2.1797111633
  C         4.3039607335        8.5726199553        0.6336790982
  H        12.6150402889       -1.2059834220       -2.9755031943
  C        13.4138138088        0.0784084344       -4.2737707785
  H         4.9372527304        8.8001387880       21.5226423838
  H         5.8404770319       10.1862535834       20.8681060189
  C         7.1828034632        9.1519384451       21.6941301796
  H        19.2115036904        5.2240303067        8.2948601247
  H        18.6303141723        6.8498953104        7.9053154936
  C        20.1292047529        6.1713745250        6.5750455046
  H         5.2769015094        8.8445081166        0.2414423058
  H         3.7110963056        8.2580207375       -0.2151233382
  C         3.6682831852        9.9301225111        1.1188552112
  S        13.9396162963        1.5766134822       -4.9596171424
  C        13.4237121095       -1.1101441782       -5.1918633294
  H         7.8941948058        8.6562000212       21.1078733232
  H         7.0874700720        8.5245673367       22.5518655406
  H         7.5651316656       10.1809373447       21.9029927372
  H        20.4154797024        5.2697860557        6.1869913786
  H        20.0706886279        6.8855337530        5.7697303383
  H        20.9470107586        6.3948852036        7.2713878556
  H         3.5788582462       10.0662771119        2.1787779607
  H         4.1609907602       10.7207875119        0.6168371968
  H         2.6152811242        9.9298012095        0.8892452274
  C        14.1986396773        0.6083999816       -6.3987757566
  N        13.9923854402       -0.7098790657       -6.3003377169
  O        13.1119538454       -2.2715256929       -4.9636661183
  S        14.9401050591        1.2083130609       -7.9185356743
  C        14.0961810763       -1.6192405332       -7.4437234995
  H        14.2372732077       -2.6380084499       -7.0884636103
  H        14.8470725197       -1.3347620367       -8.1784927821
  C        12.7520850749       -1.5789625450       -8.1642534290
  H        12.5812263100       -2.5251388729       -8.7274189190
  H        12.7702424864       -0.7702213550       -8.9431652954
  H        11.9090952427       -1.5094259217       -7.5439418897
