352
 i =    90200, time =    45100.000, E =        99.8515422673
  H        12.0805307697        6.7417621191       32.8538533833
  C        11.7158674723        5.7682147349       32.8598137347
  H        12.5331254235        5.0960020375       32.9415626768
  C        10.8944981300        5.6131376420       31.5625891300
  C        10.8765187037        5.5145081738       34.1130109731
  C        11.5987697419        6.0897224531       30.3004248017
  H        10.5531426745        4.5960806575       31.4976930911
  H        10.0266555274        6.2440326136       31.5907151869
  H        11.4390829525        5.5639002698       35.0316869970
  H        10.0802776518        6.2405278120       34.1948647577
  H        10.3038691550        4.6168645070       34.0506700468
  C        10.6058980146        5.8868512819       29.1877247377
  H        12.5287289376        5.5684214996       30.1592780240
  H        11.7845115910        7.1646123471       30.3241811816
  C        11.1241052500        6.0026968339       27.7064272763
  H        10.1319540628        4.8984639486       29.2634732309
  H         9.8307318379        6.6383323180       29.3275312054
  C        10.0959842211        5.2101109918       26.7386269953
  H        12.1695866919        5.5447185418       27.6894935952
  H        11.1792669180        7.0529839278       27.5415273756
  C         8.8342203815        6.1104805492       26.3697475182
  H        10.6382576265        4.9309918521       25.8087892367
  H         9.8829491206        4.2813787492       27.2173617303
  C         7.6405293846        5.3475939636       25.7739543912
  H         8.4752926427        6.6971385644       27.2392549938
  H         9.1991328840        6.8154136032       25.5950964706
  C         7.3363505586        3.9379466503       26.4462095538
  C         8.0668479388        4.6825978189       24.5335528120
  C         6.4044250668        6.2719098458       25.5351184962
  C         7.4995181261        2.8749594182       25.6327654617
  C         6.8794005258        3.6303247727       27.6878056247
  C         7.9791921205        3.3306822505       24.3973430076
  C         8.5866898886        5.2914906296       23.3465528500
  H         6.5313642508        7.0968360286       24.9371278521
  H         6.1675708102        6.6811916588       26.5309090433
  C         5.1439834913        5.4911102284       25.0327908100
  S         7.0349446994        1.4239191585       26.3576970809
  C         6.7348485170        2.2540270010       27.8303793240
  H         6.8197375190        4.3075824937       28.4809812140
  C         8.2633594469        2.6639103421       23.2581298573
  H         8.4435174916        6.3740258792       23.4106372762
  C         8.8636483751        4.6226629553       22.1642818970
  H         5.4496944374        5.0210308937       24.0932915342
  H         4.7950223489        4.7613678710       25.7867339454
  C         3.9414350607        6.3605418536       24.6547563921
  C         6.1856779063        1.5774036407       29.0683626156
  C         8.6836515996        3.2862598148       22.1004911691
  H         8.2113298472        1.5870368714       23.3513698561
  C         9.2460259296        5.0525681908       20.9270677017
  H         3.3254774637        5.8330639306       23.9251766849
  H         4.2092609718        7.3242098277       24.3386408137
  C         3.0391004250        6.7352964140       25.8411934435
  C         5.9482129725        0.1853636349       29.2540452494
  C         5.7352676618        2.4463383218       30.2023257212
  C         9.0612489977        2.5687882330       20.8189267398
  C         9.3196861781        3.9635164136       20.0606746000
  S         9.5173950259        6.6200525010       20.0869050698
  H         2.2273950804        7.4227735756       25.4873629753
  H         3.6154171707        7.1847247607       26.6343393987
  C         2.2715363167        5.5366669710       26.3674927948
  N         6.0833904000       -0.7655312861       28.2179722369
  C         5.4787781131       -0.3918543895       30.4212262003
  C         5.2238554769        1.8591149893       31.3955008033
  H         5.8101606575        3.5221956259       30.1866548796
  C         7.9294921238        1.7275172947       20.0881540625
  C        10.3769993402        1.7448691931       20.8512217380
  C         9.6260465803        4.3925211160       18.8161987882
  C         9.6809701548        5.7475031647       18.6712355422
  H         1.4189845357        5.4213911230       25.6948705817
  H         2.7969051210        4.6292816848       26.2002604099
  C         1.7401835468        5.6607653116       27.7575422788
  S         5.8709977716       -2.2257018906       28.9090371681
  N         5.4197618913       -1.7576947460       30.4046768612
  C         5.1870560369        0.3378477779       31.5756287242
  H         4.9478549092        2.6287933669       32.1339182614
  H         7.8983356799        0.7751860303       20.5909227609
  H         8.1589635783        1.3836590969       19.0511909602
  C         6.6650212870        2.5557085926       19.9779604221
  H        10.5057664406        1.0883798208       19.9721010504
  H        10.2964282249        1.0148500306       21.6565988810
  C        11.6249508454        2.6266684372       21.0982128868
  H         9.7274380637        3.6935813663       18.0284791720
  C         9.8790246134        6.4680451574       17.4076575679
  H         0.9634179670        4.9187951348       27.9068535652
  H         1.1535431438        6.5199793342       27.8756191008
  C         2.8212158296        5.5927960980       28.8208268120
  C         4.8627508045       -0.2936855769       32.7686170376
  H         6.9492953669        3.4508429161       19.4664722637
  H         6.3190184174        2.9468474217       20.9768195874
  C         5.6049336555        2.0222900594       19.0376668642
  H        11.4651702646        3.2064793999       22.0365795547
  H        11.7242937354        3.2836414889       20.2400481190
  C        12.8374412698        1.6820026514       21.3930329682
  C         9.9973861254        7.8546538173       17.2124128215
  C         9.9716809041        5.6445015372       16.1723152293
  H         3.5186082311        4.7979060003       28.7415356729
  H         3.3589231455        6.5386388999       28.7596389484
  C         2.2591164985        5.5655082380       30.2965457775
  H         4.9813394067       -1.3238854129       32.7068024294
  C         4.7039203876        0.1159647505       34.0581992587
  H         5.9201889075        1.1907499533       18.4544729798
  H         5.4438362830        2.9023360319       18.4098119094
  C         4.2294672699        1.7268538692       19.6020866077
  H        12.5054865302        0.9077598839       22.1962513733
  H        13.3186080575        1.2225943636       20.5006033982
  C        13.9867680650        2.5379924996       22.0425638231
  N         9.6514174028        8.7095988692       18.1980551926
  C        10.3329497882        8.4655771345       15.9854398277
  C        10.2348384417        6.2159469698       14.9727849555
  H         9.8100002293        4.6535402717       16.2432513349
  H         1.6027642080        6.4126734507       30.4534728068
  H         1.8267541522        4.6176114028       30.5666562920
  H         3.0514659221        5.6857017773       30.9675614777
  S         4.3768702503        1.7117313108       34.4435966254
  C         4.5875534536       -0.8453075798       35.1597570218
  H         4.1425558855        0.8289013467       20.2366547328
  H         3.8791913472        2.5324962825       20.2356684879
  C         3.2270222000        1.3572388015       18.4122928003
  H        13.4259207289        3.1826198948       22.6880589389
  H        14.2946335541        3.2206930820       21.3307145021
  C        15.0386998748        1.8029254714       22.8576952448
  S         9.7600565858       10.2174548303       17.5466512305
  N        10.4243365644        9.8503195683       16.0764300417
  C        10.5234817431        7.6479074146       14.8529356645
  H        10.2816063580        5.4819522125       14.1615341254
  C         3.9856826742        1.1285201434       36.0216451664
  N         4.1797824936       -0.1921318796       36.2768094468
  O         4.7799966836       -2.0456471317       35.0296230244
  H         3.7804385059        0.8026633843       17.6948490822
  H         2.6596553080        2.2308581039       17.9943979188
  C         2.2226254971        0.3070085182       18.8052159320
  H        14.5557535063        1.2912986693       23.6927073309
  H        15.6675336047        1.0964078217       22.3084423247
  C        15.8815904085        2.9530036645       23.5548838633
  C        10.8292367083        8.3051453686       13.6048498115
  S         3.4282871229        2.2192127599       37.3730710645
  C         3.9443460443       -0.8848269405       37.5392602103
  H         1.9522338489        0.3436581519       19.8912400386
  H         1.2996636815        0.3971270637       18.2698385512
  C         2.8180043959       -1.0812294398       18.5516397207
  H        16.2783355384        2.6467296567       24.5685754356
  H        15.3222461787        3.8450155416       23.8271991100
  C        17.0556657176        3.3785987688       22.7457095606
  H        10.5780097797        9.3308841247       13.6953422057
  C        11.2472930361        7.8329395665       12.3954378136
  H         3.1864796866       -0.3171693933       38.0019579480
  H         3.5602608027       -1.8737922514       37.3193860152
  C         5.2621098741       -1.0613843368       38.3586456235
  H         2.3594446673       -1.6054832249       19.3064700520
  H         3.8886563052       -1.1999126176       18.7726498809
  C         2.4564097914       -1.6205049838       17.1011918411
  H        16.9076469319        3.2774804097       21.6090621702
  H        17.2711369517        4.4464489065       22.9053476139
  C        18.3025848289        2.5911645846       22.9978473782
  S        11.7511324791        6.2472238964       11.9839333251
  C        11.3542184674        8.8724750849       11.3968484548
  H         6.0584677552       -1.4927362480       37.8490937768
  H         5.5915863457       -0.0494137779       38.6975795636
  H         5.1205836028       -1.7736949453       39.1998436975
  H         1.3824086090       -1.4769880163       16.8542161056
  H         2.7597312314       -2.6669895720       16.8851318204
  H         3.0182135473       -1.0092195149       16.4234955767
  H        18.6546172767        2.5132802473       23.9897248446
  H        19.0750880739        3.1495130027       22.4792308512
  H        18.2221291812        1.5940006969       22.6289091341
  C        12.1870684212        6.9283763136       10.3773617678
  N        11.8832198901        8.2696009838       10.3116818333
  O        10.8903401444       10.0102721947       11.4821184810
  S        13.0751994111        6.0844886257        9.0508196108
  C        12.2151131185        8.9650232708        9.1364843394
  H        12.4726716075       10.0182886791        9.3540251352
  H        13.1769984574        8.6776882923        8.8322222345
  C        11.2418290126        8.8723033525        7.9489426582
  H        10.6886045218        9.7798083828        8.0028374741
  H        11.7635277439        8.9894891005        6.9803640072
  H        10.5380649977        8.0472201340        7.8635497727
  H         3.9836045342        1.5576239920       13.2310301799
  C         3.5853885802        2.5573910424       13.1891162673
  H         4.4425879964        3.1843088906       13.1349201967
  C         2.7584944409        2.6246985578       11.8693895307
  C         2.7849884303        2.9302686996       14.4600153984
  C         3.6166483863        2.6633772514       10.6032965151
  H         2.1573135603        3.5059577035       11.8722666770
  H         2.0350088121        1.7675535744       11.9150125265
  H         3.5203738153        3.5956624436       14.9109984695
  H         2.7959504543        2.0562394845       15.1447807139
  H         1.8455189571        3.4475709750       14.3026685566
  C         4.4468503862        1.4713511930       10.2602299435
  H         3.1337032204        3.0875891322        9.6915614878
  H         4.3347178480        3.5634977252       10.7372802279
  C         5.1799573178        1.5287552693        8.8733408307
  H         3.7819158312        0.5954800049       10.2879283700
  H         5.0981893981        1.3217901400       11.1153679910
  C         6.4765560513        2.4755726111        8.9629122676
  H         4.5450065164        1.9215938279        8.1098286827
  H         5.3351196040        0.4971515804        8.7191824971
  C         7.6757935771        1.6929615228        9.4122439606
  H         6.7827378996        2.8900259075        8.0427380894
  H         6.2400279690        3.3684377812        9.5369962212
  C         8.9992066688        2.5124415212        9.5233276611
  H         7.8639505718        0.9699996175        8.6548282812
  H         7.3869778995        1.1769477121       10.3709699806
  C         8.6239300884        3.8886699081       10.1378259219
  C         9.5205863326        3.1473852821        8.2087321701
  C        10.1158108761        1.7872399709       10.3192418798
  C         8.9634609053        4.9623243046        9.2829685721
  C         8.0418853812        4.3856588950       11.2963375088
  C         9.4675093515        4.4577122009        8.1113474055
  C        10.1853960782        2.5307685147        7.1878838638
  H         9.6936170942        1.3591513660       11.2455721883
  H        10.4317647356        0.8869853229        9.8077819184
  C        11.3487599076        2.6234419505       10.6062137377
  S         8.6661749724        6.5419685653       10.0070555828
  C         7.8878950508        5.7533621177       11.3433952768
  H         7.7126176786        3.6739261636       12.0063480091
  C         9.7857544886        5.1009219668        6.9772804564
  H        10.2572131188        1.4495918314        7.2604113056
  C        10.5684381796        3.1638335139        6.0283590271
  H        11.1676089268        3.3289442935       11.3478191324
  H        11.6539798199        3.3925389707        9.8748870304
  C        12.5580792845        1.8410895144       11.0622274558
  C         7.5167953244        6.5272200767       12.6052598278
  C        10.4430719423        4.4934709175        5.9043778162
  H         9.6902025542        6.1542126637        6.9645559346
  C        11.0910083744        2.7907417028        4.8420691342
  H        13.4825587661        2.3231501132       10.8179417366
  H        12.6922374664        0.8985180420       10.6360836970
  C        12.3772149134        1.5446521861       12.5546176465
  C         7.6658566178        7.9057726670       12.8446346390
  C         7.0410406590        5.7032609898       13.7517237556
  C        10.8967811115        5.1883528406        4.6882806260
  C        11.2414510087        3.8618750609        3.9889045374
  S        11.3525504449        1.3657689636        4.0849113411
  H        11.4690348275        0.9729257860       12.7966693655
  H        13.0008042724        0.7140412113       12.8622575174
  C        12.6046422351        2.7085772508       13.5377993863
  N         8.0585102918        8.9239983565       11.9505185073
  C         7.3163067071        8.4245752912       14.0843133994
  C         6.6480754364        6.2085605078       15.0009588534
  H         6.9280414117        4.6511818529       13.6291801190
  C        12.0509458561        6.1098800873        5.0478043345
  C         9.8432502461        5.9900406868        3.9185082419
  C        11.7914352464        3.5015844955        2.7554286973
  C        11.7919813528        2.1776285199        2.6110315657
  H        12.4468475385        3.7054359435       13.0204103085
  H        13.6569496082        2.6984185033       13.7391459133
  C        11.7154827045        2.5067611602       14.7500326054
  S         8.0807671268       10.3095572721       12.7815105004
  N         7.5196494263        9.8259772128       14.1301836036
  C         6.8542031879        7.7291736998       15.1720219210
  H         6.4054115256        5.5001891965       15.8245710339
  H        11.7053171742        6.9235291113        5.6883442347
  H        12.3121556311        6.6632556729        4.1946571520
  C        13.3438592429        5.2708555473        5.5326975505
  H         9.6349491800        6.8922295086        4.4691216950
  H        10.0986462085        6.2960971617        2.8828263132
  C         8.5903288346        5.1387886041        3.7776334656
  H        12.0224197171        4.2484179310        2.0231077741
  C        12.0893620029        1.3825783274        1.3840324094
  H        11.7326749934        3.3954435974       15.3899310315
  H        10.6838595837        2.3828025027       14.3273265342
  C        12.1111232034        1.3266346331       15.6671122697
  C         6.7838411840        8.4380989232       16.4269244369
  H        13.1383330035        4.9913444493        6.5966689326
  H        13.4688417256        4.4197737280        4.8354157279
  C        14.5095163688        6.2674017391        5.4473116216
  H         8.1169676246        5.0392521759        4.7629753868
  H         8.7610959883        4.1115632873        3.3829285868
  C         7.6106477050        5.9636123191        3.0799832597
  C        12.0377728172       -0.0294031939        1.2150486792
  C        12.1820833811        2.1356694526        0.1033244045
  H        12.8215077331        0.7150542391       15.1846856785
  H        11.3130468223        0.5570012187       15.9668546588
  C        12.7267630697        1.9568802273       16.9866946008
  H         7.1458667384        9.4548980105       16.4189779530
  C         6.4843082051        8.0247328258       17.6959852955
  H        14.3146389611        7.1585165752        6.1438657234
  H        14.4025417604        6.8713850702        4.5023220562
  C        15.8954081537        5.6498820908        5.6424384644
  H         7.3006554470        6.7727688453        3.8003660549
  H         8.0860815235        6.4847557817        2.2517792764
  C         6.4397876332        5.0254500561        2.7439327688
  N        11.7178035509       -0.9795543378        2.1398391053
  C        12.3579671429       -0.6310663344       -0.0160860985
  C        12.4840783398        1.5262345214       -1.1052850705
  H        12.1263476200        3.2154605373        0.1137669903
  H        11.8442406168        2.3878640347       17.5216183931
  H        13.3783866773        2.8449657980       16.9641131250
  H        13.1625521186        1.2237087642       17.6899763062
  S         6.1342549231        6.4379281189       18.2168512771
  C         6.4235360466        8.9929830105       18.7525446890
  H        15.6739430659        4.6714042480        6.0534079264
  H        16.3980162824        5.5613423635        4.6904179244
  C        16.9426965231        6.4727185394        6.4996740338
  H         6.3127812322        4.1467314906        3.4574181942
  H         6.6468020677        4.5632647593        1.7587373619
  C         5.0558325211        5.7575912139        2.5647629548
  S        11.8863790020       -2.4812058897        1.4351635250
  N        12.5432747813       -2.0245548540        0.0352055052
  C        12.6291720843        0.0461769085       -1.1970556628
  H        12.5144962268        2.0848779443       -2.0473691106
  C         5.9870464078        7.1123863225       19.8571106063
  N         6.1099209826        8.4306909042       19.9378028131
  O         6.5342913748       10.1721307400       18.5410817144
  H        17.5137645519        7.3256982399        6.0449796541
  H        16.2316656964        6.8962574288        7.2112436283
  C        17.8862520482        5.4566810650        7.1847066414
  H         4.2237017117        5.0963719470        2.7818175649
  H         4.8777635843        6.5113294201        3.3088115572
  C         5.0443218030        6.5118621891        1.2080324006
  C        12.8684452701       -0.6873682690       -2.3760675624
  S         5.8234050094        6.2961425398       21.3366984860
  C         6.1798334318        9.2712726334       21.1264847737
  H        17.3212384587        5.1698449902        8.0899516069
  H        17.9866388488        4.5437692600        6.6340104362
  C        19.1807518808        6.0940539512        7.5624273364
  H         4.6295662481        5.8130439658        0.4329165597
  H         6.0586985246        6.7988363770        0.9919262453
  C         4.2380253442        7.8376774336        1.2727669010
  H        12.5491745406       -1.7184675054       -2.2559979238
  C        13.3719746063       -0.4472022229       -3.6170264547
  H         5.4333304163        8.9182642116       21.8597238067
  H         5.9478385561       10.3498305469       21.0259275958
  C         7.4724634424        9.1683992795       21.8345249576
  H        19.7602563164        5.4740561860        8.2225779553
  H        19.0657367859        7.0740601529        8.0041896450
  C        20.0409398059        6.0981365997        6.2896603003
  H         3.8559115865        8.0334369722        0.2565008095
  H         3.3654186693        7.7354919600        1.9354747655
  C         5.0861490274        8.9802646125        1.8400325915
  S        13.8265810535        1.1664303045       -4.0759950726
  C        13.2633758585       -1.4525025298       -4.6795065156
  H         7.3836698341        8.4329542412       22.6528277665
  H         7.7220178745       10.0368734598       22.3034051319
  H         8.3231043837        9.0314510964       21.1547085284
  H        19.9240521709        6.9033458141        5.5643566090
  H        21.0586097751        6.2136041840        6.5948654751
  H        20.1594864110        5.1837758487        5.7674552186
  H         5.7002448200        8.6051254069        2.6375336217
  H         5.8300922227        9.2596641738        1.1661335280
  H         4.5146085802        9.7785855546        2.2216844293
  C        14.1629861779        0.4229735756       -5.5970572770
  N        13.8807800152       -0.8949211846       -5.7500592362
  O        12.7223525143       -2.5392027617       -4.5897005712
  S        14.3668335459        1.3998466060       -7.1228286078
  C        13.9799578435       -1.6547737982       -6.9974966467
  H        14.1584491503       -2.6993874412       -6.6597812338
  H        14.9173880659       -1.3581095788       -7.4899772219
  C        12.7564046422       -1.5632520810       -7.9363452547
  H        12.3151850156       -2.5465157482       -8.1536119272
  H        13.1166032864       -1.2865168025       -8.8845038839
  H        12.0846379602       -0.7854487013       -7.5633949397
