352
 i =    32200, time =    16100.000, E =        98.9601691926
  H        10.6678493831        4.9185913853       31.7240577054
  C        10.7652281620        5.9289963748       32.0407503964
  H         9.7653151520        6.4258427947       32.1399414241
  C        11.6896347118        6.7410459365       31.0393567809
  C        11.4234136392        5.5966251846       33.3723291095
  C        12.0311179896        6.0661813982       29.6975350770
  H        11.2980804155        7.7679894333       30.8503896673
  H        12.6156404086        6.9231622701       31.4719974405
  H        10.6208492438        5.4601044300       34.2059118597
  H        11.7748356735        4.6057039424       33.2900562547
  H        12.0224756066        6.3843499246       33.7739627641
  C        10.8438447697        5.5593644679       29.0272445495
  H        12.6901578190        5.1947082418       29.8383103861
  H        12.5804848546        6.8188296136       29.1113815901
  C        10.9546040701        5.4482707215       27.5004627292
  H        10.5748975902        4.5989569616       29.3540162300
  H         9.9340539581        6.1245910814       29.1855960088
  C         9.7507769276        4.7870092903       26.8331746097
  H        11.7711768980        4.8073256845       27.1656429520
  H        11.0578391238        6.4149336409       27.0448280659
  C         8.5346281909        5.6706786239       26.5704710392
  H        10.1532145854        4.3496179674       25.9237896490
  H         9.4028972715        3.9219323496       27.4478578050
  C         7.3770638284        5.0081145812       25.8041230952
  H         8.2318992398        6.0580458812       27.5361607770
  H         8.9583964659        6.6088667137       26.0068180386
  C         6.9554753727        3.6774824515       26.3915018600
  C         7.7479791934        4.3634460145       24.5959931821
  C         6.1294848606        6.0027930958       25.5324150931
  C         7.2246987538        2.5762999870       25.5893211001
  C         6.3916757882        3.2854742082       27.6428229481
  C         7.7032814381        3.0332730264       24.3938822236
  C         8.1862951499        5.0549955655       23.4316211402
  H         6.4040740568        6.8063195199       24.9627935586
  H         5.9325125946        6.4550118322       26.5040063838
  C         4.8909540719        5.2033733519       24.9606265142
  S         6.8596412945        1.0264330036       26.2485073256
  C         6.3186415290        1.9301976754       27.7258180115
  H         6.0863667979        4.0441942205       28.3189194971
  C         8.0493116542        2.3628682007       23.2455163138
  H         8.2221448883        6.1466038002       23.4622768785
  C         8.5415844522        4.4313353061       22.2656461823
  H         5.0503573506        4.8687599173       23.9505877241
  H         4.8228311137        4.2838113013       25.5029010803
  C         3.5987335920        5.9703785387       25.2481464679
  C         5.8808634399        1.2380603546       28.9951746807
  C         8.4249243074        3.0574412939       22.1023472204
  H         8.0047663091        1.3040362777       23.2493845040
  C         8.9053351844        4.8772901337       21.0000111968
  H         2.8590236610        5.7292804035       24.4683797362
  H         3.8492092317        7.0164785321       24.9119705451
  C         3.0188191733        5.8851759772       26.6307629195
  C         5.9022121343       -0.1044717941       29.2296231586
  C         5.5232718522        2.1640068113       30.1436702027
  C         8.8273457904        2.4290999705       20.7707090365
  C         9.1179735478        3.8138918827       20.1371285041
  S         9.0585689886        6.4092140927       20.2335911207
  H         2.7542015325        6.8805833004       26.9756984639
  H         3.8720652638        5.6494906146       27.2810397362
  C         1.8095805015        4.9380123477       26.7995656236
  N         6.2694560835       -1.0399890080       28.2761677638
  C         5.5186440769       -0.6167225342       30.4849620479
  C         5.2370609915        1.6648925986       31.4023379385
  H         5.3897515301        3.2159515398       30.0347666049
  C         7.6679447245        1.6861359903       20.1139426262
  C        10.1163546390        1.5801734379       20.7918024420
  C         9.4812578060        4.2664535026       18.8346460883
  C         9.4755083356        5.6122371595       18.7124232686
  H         1.0568348460        4.9553943327       26.0270392420
  H         2.1561676503        3.9092920968       26.6916073802
  C         1.1050491288        5.1272118754       28.1259249930
  S         6.1746774044       -2.4944968737       28.9777942409
  N         5.5933589993       -2.0178509519       30.4373005440
  C         5.1867058526        0.1707401038       31.6514978406
  H         4.8606117166        2.2901917680       32.1725587088
  H         7.3894192442        0.8504148908       20.7757332485
  H         8.0558744156        1.2320857275       19.2296929087
  C         6.4349714806        2.5243192064       19.8834416317
  H        10.2818535760        1.1689559235       19.7716827580
  H         9.8281061415        0.8456831475       21.5644066954
  C        11.3585008181        2.3507908370       21.2698307279
  H         9.5090443037        3.5461829255       18.0974578870
  C         9.8292111653        6.3080859844       17.3609206459
  H         0.4320129112        4.2685088902       28.2618981700
  H         0.5693325093        6.0568098364       28.0711700521
  C         2.0464112304        5.2380685110       29.2775227275
  C         4.7847074494       -0.5265613052       32.8398127986
  H         6.6812697860        3.4094205106       19.2291516473
  H         6.0287678010        2.9493792584       20.7721332910
  C         5.3481008941        1.6919822550       19.1625280538
  H        11.0500126447        3.1009476904       22.0542485899
  H        11.6451058464        3.0919728363       20.4850907792
  C        12.4937330492        1.4084317968       21.5765409666
  C         9.8351571417        7.6937019582       17.1610935333
  C        10.1148032393        5.4827895891       16.1777921405
  H         2.7013772497        4.3976759119       29.3641700871
  H         2.7204314101        6.0059032270       29.3069955778
  C         1.3425847758        5.2668979311       30.5723065489
  H         4.8783776353       -1.6062155341       32.8219971850
  C         4.4155344470       -0.0032625051       34.0222022077
  H         4.8843851989        1.0585288806       19.9038417922
  H         5.9454152049        1.1586449431       18.4131793937
  C         4.3866112813        2.6694869692       18.4148554241
  H        12.2793474894        0.7568114881       22.3931010055
  H        12.6545372037        0.7597735459       20.7221288490
  C        13.7949769567        2.1247624374       21.8975893030
  N         9.5479486093        8.6189086082       18.1605759591
  C        10.1500232839        8.2853801524       15.9564245294
  C        10.3877845334        6.0718395743       14.9691216372
  H        10.3167290381        4.4388645971       16.1678258776
  H         0.4468006919        4.6376770885       30.4922097733
  H         1.9683130852        4.7777651765       31.2941570560
  H         1.0030946410        6.2355968623       30.7562233376
  S         4.1383075464        1.7066047774       34.4637740527
  C         4.4193701737       -0.9096061202       35.1101354439
  H         4.2069115196        3.5148259804       19.0566448905
  H         4.8737050082        3.1350804552       17.5770399201
  C         2.9511370177        2.3300881374       18.2013184238
  H        13.7795511248        3.1113344337       21.4665726661
  H        14.7072796978        1.6601202681       21.4336518420
  C        14.0140394336        2.1962134100       23.3583596606
  S         9.6959303672       10.0654641207       17.5311712198
  N        10.0506952134        9.6950704433       15.9991767888
  C        10.4423223875        7.5724118980       14.8130873466
  H        10.3613368958        5.4340370221       14.1053661837
  C         4.1983204677        1.1177124733       36.1434609136
  N         4.1596745828       -0.2186910204       36.2790083055
  O         4.5297609015       -2.1276245993       35.0332143543
  H         2.4728973070        3.1093704092       17.6769030607
  H         2.5013743846        2.2406593871       19.1824225436
  C         2.7623717861        0.9542289927       17.5328429133
  H        13.1967917825        2.7647671197       23.8318889303
  H        13.9894607781        1.2467980722       23.8573468367
  C        15.3177823191        2.8916130438       23.7068964695
  C        10.7226982066        8.2619844211       13.5994591670
  S         3.7059518052        2.0977347374       37.5642744252
  C         3.9555960174       -0.9885181054       37.4825698830
  H         2.0314527636        0.8793048920       16.7761171868
  H         3.6873522033        0.5722399399       17.1696631643
  C         2.2447677863       -0.0174090626       18.6199837670
  H        15.1180775432        3.6059696216       24.4830901832
  H        15.5372983711        3.5282413307       22.8054354826
  C        16.5320582201        2.0286623843       24.1126222629
  H        10.3317131224        9.2471970389       13.6120437023
  C        11.1816983436        7.9454527617       12.3093259434
  H         3.1995474330       -0.5218741630       38.0979608201
  H         3.5622846321       -1.9908352080       37.2365704423
  C         5.2581411226       -1.0656925421       38.4255021897
  H         1.3916498090        0.4609137624       19.1609186131
  H         3.0308440155       -0.2179671815       19.2510125055
  C         1.6699501175       -1.3344681841       18.0704331262
  H        16.8947755562        2.4132443330       25.0816159832
  H        16.3034115032        0.9665363562       24.3626804520
  C        17.7908776944        2.0675384728       23.1883841272
  S        11.6972967749        6.3278548745       11.7940677165
  C        11.4576542499        8.9773519116       11.3070818308
  H         5.2315098639       -2.0447700702       38.9319391150
  H         6.1268203686       -1.1008168770       37.7364877377
  H         5.1586633455       -0.2811501872       39.1479354256
  H         0.8343867524       -1.2113298920       17.3664126158
  H         1.2608867837       -2.0575259953       18.8196442557
  H         2.5234668546       -1.8002878757       17.6424253411
  H        17.5103593432        1.4322977071       22.3450329321
  H        18.5273333779        1.5289120122       23.7747330497
  H        18.2375689306        3.0015377275       22.8047205246
  C        12.1534012410        7.0477954167       10.2691755869
  N        12.1095923149        8.4037093480       10.2410276526
  O        11.3042925648       10.1854051417       11.5590764651
  S        12.9778216392        6.1223182890        8.9812611659
  C        12.3834405803        9.1546291408        9.0124951114
  H        12.4172043348       10.2305897162        9.2725523281
  H        13.4248457721        8.7363618373        8.8080931091
  C        11.3820303115        8.9162123269        7.9023016962
  H        11.4186410992        9.6931415621        7.1781443556
  H        11.6492120154        8.0060934700        7.2703351620
  H        10.3781162270        8.8871902686        8.2442707433
  H         3.4947438098        0.8030036824       13.9966912007
  C         4.1214444040        1.6651623494       13.6150295581
  H         5.1537447155        1.3525006655       13.3319531441
  C         3.3833299305        2.3273331143       12.4343298851
  C         4.3161143988        2.7752778493       14.6435197898
  C         4.2175975226        2.6240239422       11.1406970240
  H         3.0271882087        3.3204418163       12.7027652021
  H         2.4672664529        1.8271609738       12.2102907387
  H         3.5447928528        2.9272172199       15.3908911867
  H         4.4938339212        3.7935856974       14.2823308571
  H         5.1013647034        2.4445792722       15.3759175071
  C         4.7027565855        1.3510530751       10.3182590224
  H         3.6044433816        3.2570920409       10.4132049432
  H         5.0135465511        3.3503781687       11.3255036253
  C         5.2414491725        1.6587821302        8.9341216235
  H         3.8775713006        0.5861666802       10.2073489583
  H         5.5287220219        0.8361783148       10.7950177038
  C         6.5760471997        2.3758536123        8.8373141158
  H         4.4688232122        2.1242099013        8.3081980820
  H         5.4603669508        0.6553538834        8.5521676419
  C         7.7694557191        1.6834152024        9.4626337756
  H         6.7585882945        2.6348930396        7.7506958726
  H         6.4084534261        3.3484159239        9.2870888209
  C         9.0414003604        2.5308806398        9.6407543664
  H         8.0090014566        0.7207859453        9.0571073373
  H         7.4615266591        1.4919660802       10.4704346599
  C         8.7349723270        3.9100699263       10.2330098793
  C         9.5529040168        3.2343342656        8.3211285264
  C        10.0986238922        1.8137417682       10.5363246006
  C         8.9973432882        4.9844206218        9.4402437695
  C         8.1458383360        4.2794572975       11.4804088902
  C         9.5400610435        4.6042539563        8.1886076835
  C        10.0620057193        2.6038784256        7.1624496748
  H         9.6873266674        1.0370339145       11.2898355484
  H        10.6291647806        1.1773343696        9.8653898020
  C        11.0669065646        2.8091662423       11.0637169143
  S         8.4648091289        6.5053028220       10.1261979581
  C         7.9501562550        5.6503620190       11.5878227386
  H         7.9486376599        3.5425872573       12.1936245606
  C         9.9768883855        5.2998863686        7.0783994893
  H        10.2109374563        1.5126973878        7.1712071432
  C        10.3816895113        3.2852228887        6.0081623119
  H        10.7685924811        3.5285506061       11.8312919504
  H        11.4237820773        3.3645112964       10.2581599080
  C        12.3411804649        2.1558115789       11.6071141743
  C         7.4871185326        6.3393641576       12.8851792939
  C        10.3341024479        4.6176694784        5.8786262062
  H         9.8367160474        6.3586964285        7.1621202316
  C        10.7396228124        2.8781431451        4.7474707120
  H        13.0283234976        2.3204739684       10.7763876191
  H        12.1919727545        1.1177171386       11.8880468648
  C        13.0839691001        2.8547370890       12.7795084352
  C         7.4467258190        7.7631545984       13.0977724006
  C         7.0035491322        5.4327721213       14.0114132629
  C        10.7564575130        5.3563070008        4.6310207113
  C        11.0363056340        3.9945479142        3.9153859369
  S        10.9990089357        1.3545548835        3.9335964010
  H        13.7567809294        3.6574992248       12.5468129394
  H        12.3086892285        3.4830628862       13.1777693025
  C        13.7833963359        1.8440537515       13.7451040614
  N         7.6658344365        8.7011618598       12.0803445214
  C         7.2918360961        8.2340778107       14.3587261977
  C         6.7321936664        6.0028098271       15.2638839389
  H         6.8086728095        4.3716716258       13.8235679717
  C        12.0058157808        6.2199228644        4.6861443972
  C         9.5868583086        6.0334934101        3.8294267262
  C        11.4261107144        3.4974095948        2.6390268929
  C        11.4763134911        2.1631792897        2.4941897343
  H        14.4499370634        2.4047257972       14.3491302395
  H        14.3803452900        1.1532092264       13.2280129127
  C        12.7230289449        1.1455779931       14.6596749750
  S         7.7666026847       10.1379407113       12.8472263462
  N         7.4015112850        9.6100381525       14.3718720906
  C         6.8886308382        7.4472881332       15.4706204968
  H         6.4360443231        5.4009428695       16.0905848348
  H        11.9942067760        6.9555566537        5.4799122683
  H        12.2029574580        6.7765810835        3.8223930870
  C        13.2309532400        5.3639512745        4.8320818459
  H         9.2670265330        6.9888888010        4.2952406045
  H        10.0092447970        6.3040964345        2.8457166351
  C         8.3214843391        5.0832946871        3.6331451943
  H        11.6390134816        4.2322955673        1.8379398801
  C        11.8489372814        1.4106504928        1.2094610131
  H        11.7913175611        0.9197730681       14.1124276688
  H        13.0750348692        0.2062884927       15.0862556116
  C        12.2144194296        1.9515338479       15.8978302255
  C         6.7155903553        8.1743131518       16.6620876977
  H        13.0078670086        4.4933315275        5.5204733257
  H        13.5019288392        4.9204703238        3.8988278604
  C        14.4578186299        6.1080461968        5.3709736272
  H         7.7895327563        4.7474380892        4.4941900819
  H         8.6337852669        4.0536037931        3.2419756535
  C         7.2866923054        5.6673834027        2.6265471140
  C        11.9143875211       -0.0134771108        1.0624208513
  C        12.1122416546        2.2258632330        0.0658042872
  H        11.3294316928        2.4634697317       15.6163686434
  H        12.8690677551        2.7527159962       16.2529086234
  C        11.7737534041        1.1983627536       17.1535408152
  H         6.9615271413        9.1702541972       16.6276572803
  C         6.3528871250        7.8924748313       17.9470701214
  H        14.2163178711        6.8941113060        6.0721909180
  H        14.9166798020        6.6263221955        4.5765234606
  C        15.4578243739        5.1912304613        6.0896685140
  H         7.7370381487        6.3050026363        1.8978953247
  H         6.8278931219        4.8092835979        2.0128958067
  C         6.1487993042        6.4252693735        3.3373910338
  N        11.7213340540       -1.0233295830        1.9562650820
  C        12.3296823278       -0.5577529016       -0.1768797618
  C        12.4760163471        1.6794980480       -1.1771132500
  H        12.1972301284        3.3121398058        0.2237298869
  H        11.4972929374        1.7479556994       17.8937399899
  H        12.6253338309        0.4744216788       17.3455827397
  H        10.8544102001        0.6426974290       16.8702554667
  S         5.9342938889        6.4102977763       18.5907641362
  C         6.4426406456        9.0614861907       18.8992170812
  H        14.9971698735        4.9702545775        7.0437091518
  H        15.6312926284        4.2831459898        5.4371852700
  C        16.7845710938        5.9719603259        6.2439259126
  H         6.5102383068        7.1102137432        4.0050644209
  H         5.5650585197        5.7115125732        3.9326917684
  C         5.2591075480        7.0067999990        2.1934318066
  S        11.9783045055       -2.4966857088        1.2170306903
  N        12.4053126821       -1.9590467841       -0.2132790071
  C        12.6726401371        0.1799904957       -1.3003983130
  H        12.7227975464        2.3149691218       -1.9940647214
  C         5.8560791455        7.2646940142       20.1697036377
  N         6.1071633786        8.5876327222       20.1272380226
  O         6.5942007605       10.2068746384       18.5703074915
  H        17.1411009622        5.9258966450        5.2200715180
  H        16.6561945272        7.0389885119        6.4899952482
  C        17.8558439107        5.2568265092        7.0994546136
  H         5.9068512212        7.4252341843        1.4160239975
  H         4.8497557733        6.1767824887        1.5587334129
  C         4.2069045441        7.8923570878        2.7137976130
  C        12.9812941332       -0.4634893849       -2.5417242721
  S         5.5760485568        6.5120101080       21.7295470775
  C         6.1482687974        9.4393697165       21.3338134255
  H        17.4058641453        5.2563766604        8.0676251292
  H        17.9975862338        4.2515287810        6.7506303304
  C        19.1815367494        6.0241917180        7.1943349143
  H         4.1872664299        7.8325507520        3.7939022573
  H         3.2564500127        7.3620098092        2.5185534646
  C         4.2316774133        9.3155542295        2.2355258603
  H        12.5995820931       -1.4904693573       -2.5754711475
  C        13.5035869009       -0.1004015072       -3.7737006179
  H         5.7545606716        8.9411977106       22.2206558326
  H         5.4579305937       10.2918117212       21.1064380219
  C         7.5393814022        9.9210324435       21.8180478802
  H        19.7936571738        5.6467779728        8.0540155003
  H        19.1236139396        7.0790702659        7.3947824653
  C        20.1016638182        5.8020206555        6.0183944476
  H         3.5573239994        9.9611882263        2.7632166398
  H         5.3446231769        9.6469965592        2.2763706741
  C         3.8359737737        9.5747682962        0.8128838229
  S        14.1675490357        1.4093026864       -4.1885428075
  C        13.3909565635       -1.1336041403       -4.8143639804
  H         7.9990188182        9.1181598301       22.3734443815
  H         7.4938295559       10.7062765969       22.5337637884
  H         8.1871069006       10.2497661047       20.9873697514
  H        20.1052567915        4.7519628063        5.8346925621
  H        19.7688537183        6.3522559486        5.1403749589
  H        21.2498890815        6.0752446706        6.2116478402
  H         3.8788894251       10.6255684387        0.7177556155
  H         4.6105750655        9.1555478616        0.1274311385
  H         2.8476078178        9.1279105741        0.5539546680
  C        14.3838404990        0.6671795401       -5.7849190209
  N        13.9907605075       -0.6000706580       -5.9175418267
  O        13.0160949708       -2.2984743511       -4.5896990326
  S        14.7902956475        1.4931357324       -7.3376766100
  C        14.1596302562       -1.4009284704       -7.1182386167
  H        14.4829032814       -2.3509359062       -6.7751660760
  H        14.9010073413       -0.8766404862       -7.7932038945
  C        12.9477465192       -1.5969831002       -7.9537037707
  H        12.0801142530       -1.9231102525       -7.4163355346
  H        13.1350620037       -2.4965285230       -8.4707004366
  H        12.7854373322       -0.7745450562       -8.6103754220
