352
 i =    14300, time =     7150.000, E =       117.6788196529
  H         9.7960024024        4.3261370724       33.0516691660
  C        10.2412889644        5.3291668618       33.0178405773
  H         9.7926050243        5.8527709105       33.9075364739
  C         9.9453285021        5.9753401486       31.6556151705
  C        11.7634965358        5.2581100778       33.3784917820
  C        10.6852110902        5.4266165004       30.4150625079
  H         8.8620922409        5.9710784511       31.5707222250
  H        10.2625907607        7.1028045149       31.6646019779
  H        12.3962012614        6.0870473801       33.0208669102
  H        11.8726135097        5.3759681047       34.4352240636
  H        12.2631724059        4.3204147239       33.2911871355
  C        10.2862932555        6.2349331545       29.1715515380
  H        10.3743110807        4.3789812969       30.2516738732
  H        11.8019394634        5.4746911923       30.4662752780
  C        10.7579287265        5.7324795638       27.7507884122
  H         9.2734459629        6.4498625720       29.1578733150
  H        10.8561407342        7.1291460784       29.4620338113
  C         9.6038206850        5.0939475408       26.9866311914
  H        11.4447325931        4.9426502748       27.8164861983
  H        11.2952836947        6.5389139417       27.2594368880
  C         8.5610262748        5.9578738665       26.2880967909
  H        10.1783899171        4.4466270521       26.2255976680
  H         8.9634675060        4.4887227993       27.7044772152
  C         7.4470855723        5.2274494118       25.6023390093
  H         8.2873796918        6.6976104714       26.9823716612
  H         9.0403616156        6.5726116582       25.5292189418
  C         6.8762042796        3.9187840771       26.3125217861
  C         7.8807572329        4.5677210743       24.4357630096
  C         6.1941190150        6.1257065460       25.4368205574
  C         7.1863331716        2.8132489346       25.4915980808
  C         6.2659485603        3.5882450702       27.4487040958
  C         7.8005307164        3.1994612608       24.3260630885
  C         8.4148044330        5.1069603194       23.2513701901
  H         6.3617173089        6.7948838200       24.5867285821
  H         5.9153897039        6.8180601432       26.2795416605
  C         4.9071206179        5.4024246759       24.8965836133
  S         6.6641240059        1.3323098685       26.1708184681
  C         6.1074055850        2.1973279284       27.5866204755
  H         5.9856956873        4.3302015208       28.1467003498
  C         8.0992583582        2.5258840681       23.2131068136
  H         8.3394090531        6.1862451361       23.2397067916
  C         8.6487406644        4.4048560475       22.0973687216
  H         5.1035899844        4.9424286436       23.9278732017
  H         4.5614021987        4.6016798603       25.5265109747
  C         3.6999259294        6.3781647780       24.7236130971
  C         5.6121723224        1.4342772640       28.6941343881
  C         8.5433140220        3.0328203554       21.9991057873
  H         7.9169344693        1.4406342393       23.2669529030
  C         8.9361096370        4.7866512563       20.8228888969
  H         3.0459225237        5.9617885699       24.0168316873
  H         3.9758506565        7.3630020049       24.2630761509
  C         2.9983233248        6.6365011682       26.0192512062
  C         5.6680922795        0.0423676974       28.8989057968
  C         5.1420606835        2.2542943484       29.8279007143
  C         8.8753371139        2.2862291888       20.7673420796
  C         9.1297058335        3.6729319399       19.9818291814
  S         9.1425049493        6.3014977762       20.0019972106
  H         2.5072154284        7.6112598147       25.8711670205
  H         3.5991440241        6.8470485791       26.8919199816
  C         1.9097084398        5.6282937956       26.4314427796
  N         6.1412733188       -0.8751787012       27.9674818083
  C         5.5591724502       -0.5180965029       30.0716403108
  C         4.8940572560        1.6586484167       31.0898204402
  H         4.8367916868        3.2446774722       29.5990655091
  C         7.7668012793        1.4471985031       20.1517659009
  C        10.2346689481        1.5289621326       20.8783333472
  C         9.4556306425        4.0767504318       18.6766166010
  C         9.4902756519        5.4531204881       18.5071315931
  H         0.9493773596        5.7864941030       25.8235210305
  H         2.1649081450        4.6121977321       26.4319649242
  C         1.4065042244        5.9491332820       27.8330115409
  S         6.2893228221       -2.3768018751       28.6267821482
  N         5.8216118594       -1.9005707990       30.0888249224
  C         5.1328969556        0.1756851555       31.2371119789
  H         4.5895777659        2.3477485215       31.8589565787
  H         7.5190448656        0.7508810248       20.9244126389
  H         8.2196427050        0.8394008817       19.3486591218
  C         6.5064699047        2.3414093373       19.7672564455
  H        10.5437452187        1.1026871721       19.8785822268
  H        10.1855762106        0.5398401187       21.4498738299
  C        11.3865951985        2.4256001152       21.2928685659
  H         9.4430663994        3.3574497048       17.7890425215
  C         9.9147717064        6.1282900059       17.2185023693
  H         0.5088312307        6.5297718304       27.5959087203
  H         2.0800604141        6.7306260797       28.3133241341
  C         1.1792875880        4.8731442642       28.7854093606
  C         4.9515056565       -0.5364042468       32.4428470261
  H         6.6198430427        3.1998466400       19.0827939221
  H         6.1185590598        2.7943028243       20.7158511639
  C         5.4089566130        1.5468149743       19.1631406443
  H        11.3120951537        2.9596365801       22.2606294191
  H        11.6410947398        3.1314046071       20.4526776518
  C        12.6768259028        1.4919184578       21.3345693295
  C         9.8110671309        7.5582274068       17.0617010204
  C        10.1768364079        5.3619832259       16.0078352136
  H         0.2846427347        4.2885334700       28.5105938735
  H         1.9657790649        4.1378188893       28.5543730931
  C         1.1823097235        5.1625699161       30.2231761426
  H         5.0181813672       -1.6155647371       32.4138641631
  C         4.5659512066       -0.0902399455       33.7004859594
  H         4.9464008767        0.9915114998       20.0212078320
  H         5.8510237740        0.8230681490       18.4748737370
  C         4.3711660258        2.3300690232       18.3572660949
  H        12.6022948991        0.8115956029       22.1588418451
  H        12.8200511057        0.9044772944       20.3931691608
  C        14.0816853192        2.1857516307       21.4426976650
  N         9.6542530830        8.5606798248       18.0418153901
  C         9.9998479052        8.1035937867       15.8233856105
  C        10.3847751763        5.9104421326       14.7297777230
  H        10.1570186023        4.3588038763       16.1393544459
  H         0.4403198830        4.5550407549       30.7283605921
  H         2.1005436497        4.9448157425       30.7050755796
  H         0.9670907350        6.2635998332       30.4377731246
  S         4.2107533808        1.5241197280       34.2236812396
  C         4.5616648981       -1.1041411314       34.8174712676
  H         4.3130426636        3.3860845578       18.6658735681
  H         4.5725265795        2.3224579980       17.3375766074
  C         2.9397153401        1.7863919314       18.5676945499
  H        13.9491834334        3.1823336323       20.9209773510
  H        14.8121791739        1.5005484142       21.0322385393
  C        14.3454362304        2.5895549353       22.8335657468
  S         9.8482660534       10.0251703597       17.4337957096
  N        10.0810010908        9.4701670437       15.9427418819
  C        10.3369614948        7.4110124756       14.6357396798
  H        10.6150139499        5.3231737234       13.8471050795
  C         4.0914266122        0.8403635125       35.8856165419
  N         4.1622781625       -0.4870955108       35.9578349855
  O         4.7430047195       -2.3421613049       34.7075333243
  H         2.0928212148        2.4427142113       18.2878397341
  H         2.7480719498        1.7795602599       19.7135448457
  C         2.7150212767        0.3299663531       18.0985122817
  H        13.5819872043        3.3634954891       23.1239214585
  H        14.1250872175        1.8218380148       23.5006404445
  C        15.6569293171        3.2064790205       23.1323182793
  C        10.5410308080        8.1216333668       13.4508301360
  S         3.8461471542        1.6707363330       37.4419510287
  C         4.1480686348       -1.2687900861       37.1927190860
  H         2.3033087309        0.3333361604       17.0791412435
  H         3.6846110324       -0.1314033709       17.9288951335
  C         1.7753578642       -0.5174554275       18.8756040648
  H        15.5827648998        3.7923137369       24.0133969130
  H        15.8113034882        4.0213188197       22.3833613576
  C        16.7968922980        2.1832652292       23.1237423629
  H        10.1896894357        9.1496678143       13.5991780244
  C        11.0359759490        7.7710874889       12.2583678930
  H         3.4710958904       -1.0104364534       37.9616067502
  H         3.6982287238       -2.2946532599       36.9886252704
  C         5.5677618683       -1.4157229927       37.7398605655
  H         0.9394315696       -0.0141085231       19.3055250026
  H         2.3799547530       -0.9739517007       19.6140041287
  C         1.3056779750       -1.7055678763       18.0024731492
  H        17.1345895323        2.3233483015       24.1522126010
  H        16.4306701683        1.1989879193       23.2084793883
  C        17.9267738557        2.4060770946       22.1068892489
  S        11.7284977466        6.2908053418       11.8960811832
  C        11.1748704404        8.8204384401       11.2903925034
  H         5.5576657727       -1.9964730099       38.6370923790
  H         6.3132114619       -1.8979379234       37.0107953194
  H         5.9874303732       -0.4546286920       38.0588523686
  H         1.1160908975       -2.5491087791       18.6857254312
  H         2.1400449428       -2.0193699516       17.3996872335
  H         0.5072496167       -1.4562855004       17.2621828386
  H        18.1743172006        3.4890510600       21.9854425973
  H        17.5720957384        1.9690647157       21.2299495017
  H        18.9447866467        1.9608850880       22.3125462135
  C        12.1933559483        6.9953471755       10.3330003527
  N        11.8421199301        8.3613231632       10.2327758966
  O        10.6341086493        9.9350793422       11.4122716501
  S        12.6919409185        6.2998652332        8.8548479910
  C        11.9784379376        9.1620243458        8.9486743743
  H        12.0489721710       10.2253729041        9.2075377402
  H        12.7653549496        8.7341559405        8.2737161968
  C        10.6335107085        9.2212574801        8.2095325502
  H        10.6794327632        8.6098993097        7.3140145872
  H         9.7712692715        9.0678159084        8.9424936162
  H        10.4714619924       10.2604745193        7.8759495775
  H         4.5654482970        1.4517759959       12.8061743951
  C         3.8997540279        2.2298786080       12.9757808569
  H         4.3064471043        3.1790338043       13.0201010424
  C         2.9545109053        2.1994179550       11.7440472196
  C         3.1535010166        2.2800142827       14.3231285003
  C         3.7492994982        2.3815130784       10.4287560713
  H         2.2255370935        3.0376782534       11.8841848784
  H         2.4694134649        1.2668861736       11.7560220286
  H         2.4731158815        1.4312951226       14.4360821226
  H         2.6857800581        3.1942744840       14.4726891205
  H         3.9144699052        2.0535042840       15.0773398754
  C         4.5791979101        1.1779816528        9.9550728303
  H         2.9423119602        2.6531206911        9.7505249747
  H         4.3378209909        3.2583540739       10.5527763441
  C         5.2102551377        1.5881403543        8.6313913596
  H         3.9554882971        0.3261538508        9.7053664688
  H         5.3496814930        0.9174612787       10.6801300883
  C         6.4930967222        2.5232145143        8.7697579313
  H         4.4427397358        1.9671893374        7.9525810211
  H         5.5830945566        0.6277903634        8.1404152041
  C         7.8258639835        1.8892411487        9.1880055860
  H         6.6106543016        2.8760054464        7.7928453398
  H         6.3295268087        3.3632166482        9.4012010242
  C         9.0917446491        2.7087282368        9.4173671443
  H         8.0911620257        1.0072912110        8.5395579305
  H         7.5485188275        1.4021561772       10.2033421944
  C         8.7031013270        4.0791032162       10.1240680026
  C         9.5040676085        3.4122698823        8.1680863463
  C        10.2479418967        1.8268447301       10.0454043859
  C         8.9878558154        5.1474001686        9.2886795610
  C         8.0529371995        4.4761016801       11.3287542779
  C         9.5032675589        4.7406359948        8.0318124817
  C         9.7722387275        2.7532295041        6.9396759549
  H         9.9445713600        1.0969257102       10.7907038646
  H        10.7217093858        1.2019989574        9.2888141585
  C        11.3592569876        2.6917455836       10.7407742082
  S         8.5784477658        6.6198993308       10.0005322039
  C         7.8905144576        5.8247438588       11.3233988355
  H         7.6896012000        3.6933204413       11.9351468089
  C         9.8665868837        5.3661867828        6.8963129666
  H         9.8412146084        1.7081395263        6.9529720034
  C        10.1683019406        3.4017517688        5.7974092910
  H        11.0387154886        3.7038719688       11.1273278603
  H        12.1920121314        2.9096310086       10.0249206085
  C        12.0381481891        2.1441251890       11.9661429793
  C         7.3595499513        6.5465461313       12.5041070452
  C        10.2121997238        4.7547799016        5.7236055149
  H         9.7990254783        6.4014676293        6.8081389903
  C        10.5774350292        3.0136570329        4.5626408837
  H        12.7907978846        2.8250856045       12.2850652738
  H        12.5376663107        1.1832437232       11.8022916408
  C        11.0301437025        1.8784049325       13.1010670746
  C         7.4189732029        7.9357300819       12.6755980059
  C         6.9723069893        5.6893069413       13.7203472540
  C        10.5561362844        5.4259346813        4.3948588379
  C        10.8719094842        4.0952041262        3.7142899205
  S        10.8799566725        1.4848771225        3.8105641461
  H        10.1429589762        2.4326301593       12.8263924457
  H        10.7294173666        0.7822740288       13.1845605231
  C        11.6599076991        2.1538344570       14.4722842708
  N         7.6942311841        8.8881735928       11.6442193562
  C         7.1851879191        8.5455338054       13.8822302450
  C         6.7632388913        6.3243741622       14.9303617041
  H         6.7033628262        4.6537099604       13.6077462206
  C        11.7354491959        6.3073255824        4.6420479019
  C         9.4504841221        6.2023982171        3.7703112327
  C        11.1292909224        3.6799536943        2.3773424750
  C        11.2344104297        2.3207344787        2.3746676672
  H        10.9256704595        2.1500532753       15.2889029767
  H        12.0382117594        3.1179612522       14.4219141188
  C        12.7895382064        1.3184697112       14.8217954701
  S         7.5834573951       10.3444974370       12.2471888442
  N         7.2769651947        9.9165716376       13.8206452009
  C         6.9880779810        7.8607542415       15.0700728398
  H         6.4370290283        5.7404741804       15.8006247296
  H        11.5784279194        7.0422767926        5.4263039244
  H        12.0096769450        6.8527806251        3.7323509426
  C        12.8900887671        5.4492154203        5.1089684956
  H         8.9610988535        6.8388942660        4.4233610756
  H         9.7854392098        6.9300472467        3.0113342526
  C         8.3660675080        5.4061636153        3.1197499854
  H        11.2374990462        4.3927471244        1.5760491698
  C        11.5216912104        1.4821036420        1.1031326353
  H        12.4777361066        0.2921535364       14.7520174633
  H        13.6826492602        1.3861037405       14.1474374487
  C        13.4134339292        1.6000884518       16.2013922631
  C         6.7826589483        8.5966234666       16.2789186063
  H        12.8670001860        5.3206051108        6.2037502480
  H        13.0097866368        4.4443183852        4.7708962380
  C        14.2529543445        6.2532853930        4.9568540510
  H         8.0922032850        4.4712140551        3.6523741184
  H         8.8067294717        4.9772141999        2.2215416383
  C         7.0555872684        6.2081966071        2.7920282384
  C        11.5104941571        0.0893787759        0.9678793836
  C        11.8087659180        2.2089323517       -0.1469507767
  H        14.3333732778        2.1811896553       15.9239936381
  H        13.7341750563        0.6599385053       16.5648379783
  C        12.5560900719        2.2765402997       17.1873228465
  H         6.8500910217        9.6890410864       16.1708772005
  C         6.4184884784        8.2031098884       17.5891719910
  H        14.3905107656        7.0885063176        5.5865968877
  H        14.5326530299        6.5588388732        3.9017265707
  C        15.5060562181        5.5371467577        5.3777426714
  H         6.9495754867        7.0701100874        3.4883179720
  H         7.1800768996        6.7022616306        1.8145016775
  C         5.7690409194        5.4865628574        2.8991141405
  N        11.2542435552       -0.8245383549        1.9906466235
  C        11.8201773125       -0.5590911742       -0.2560003507
  C        12.1006095149        1.5734721721       -1.3326326938
  H        11.5723925507        3.2568871094       -0.3005800229
  H        13.1850966420        2.1826926325       18.1105883586
  H        11.6715679078        1.7230378656       17.3553388699
  H        12.3597703946        3.3655488562       17.0702075963
  S         6.2324249749        6.5646514123       18.2297943466
  C         6.2420493692        9.2251978900       18.6447635722
  H        15.3325124262        4.5073892735        5.4112692168
  H        16.2513118537        5.7696471656        4.6531037696
  C        16.0058533390        5.8081278710        6.8150768732
  H         5.6747706165        5.1662394097        3.8872369580
  H         5.8684529399        4.6330585094        2.2722400499
  C         4.6134677388        6.3174515742        2.3858084911
  S        11.3254893711       -2.3202473029        1.3215117411
  N        11.7808113079       -1.9307579151       -0.1459624803
  C        12.2244342965        0.1146979501       -1.4280739339
  H        12.3972005980        2.1549071596       -2.2029608199
  C         5.9777067311        7.2306877558       19.7822582584
  N         6.0169216514        8.5693650924       19.8180788793
  O         6.5344004464       10.4170413081       18.4896827330
  H        16.2072446684        6.8709473674        6.9686771355
  H        15.1115107634        5.6859840530        7.4427857782
  C        17.2772524836        5.1896846958        7.2990247930
  H         4.8285576431        6.6186567219        1.3618615261
  H         3.6670811336        5.7378618441        2.4107108254
  C         4.2936168341        7.4437602949        3.3940337769
  C        12.4866139310       -0.6549862119       -2.5952925760
  S         5.8687088841        6.2462312986       21.3378535618
  C         6.0905759576        9.3834874890       21.0762533536
  H        17.1206512185        4.7937103329        8.2963833543
  H        17.3872267116        4.3636170632        6.6153001149
  C        18.4159267858        6.1448239913        7.2733416497
  H         5.0529140130        7.7994761298        4.0304486088
  H         3.5231704012        7.0043312648        4.0856757401
  C         3.5708590121        8.5691432352        2.7750230422
  H        12.3106991326       -1.7934604685       -2.6483048209
  C        13.0345491567       -0.2652283992       -3.8102705005
  H         5.4800091362        9.0171654943       21.9334052219
  H         5.6353854108       10.2436847373       20.7251040871
  C         7.5121454420        9.4581072463       21.5220148962
  H        19.2192544796        6.1085304406        8.0450523804
  H        18.1183784243        7.1181807630        7.4647953746
  C        19.1135016604        5.9882172756        5.9340140768
  H         2.5598855505        8.2822660572        2.5234316186
  H         3.6128541106        9.2832157394        3.6440367230
  C         4.3017403330        9.1642467007        1.5691598277
  S        13.6109627513        1.2772498625       -4.3107582555
  C        13.1531245871       -1.3004362843       -4.8429914875
  H         7.6713517126       10.3066530955       22.2221880005
  H         8.0521289809        9.7207177919       20.6228675024
  H         7.9143633898        8.6153197038       22.0140213018
  H        20.2033511703        5.8726479534        6.1148731628
  H        18.8283588117        5.2093453210        5.2567621674
  H        19.1171230429        6.8310671070        5.2470231218
  H         4.3759594438       10.2174437266        1.5918110562
  H         5.3573950587        9.0137351852        1.6414101392
  H         4.1463081924        8.6901012604        0.6031413740
  C        13.9876102485        0.5071898444       -5.8305466055
  N        13.9094731848       -0.8425151111       -5.7879043769
  O        12.7776475690       -2.5087508603       -4.8078484066
  S        14.8306610794        1.2563172566       -7.1966813098
  C        14.2646210664       -1.7700901783       -6.8272468774
  H        14.5723363120       -2.7027142761       -6.3207952670
  H        15.2022320804       -1.3714423261       -7.2724694724
  C        13.1701066579       -2.0730055486       -7.7858513954
  H        13.5459743232       -2.0849988116       -8.7760566757
  H        12.4680713564       -1.2048767698       -7.7351889644
  H        12.6587935851       -3.0377472904       -7.6413263707
