352
 i =    65800, time =    32900.000, E =       100.3212340308
  H        12.5022993432        6.4381782287       32.1785018796
  C        11.5155399226        5.9789342595       32.2662205606
  H        11.7357688403        4.9284186353       32.3998356028
  C        10.7623556964        6.2921121089       31.0554483654
  C        10.9348771064        6.5596705653       33.4926846321
  C        11.6631320163        6.0542237775       29.8246887274
  H         9.9502356247        5.5781041469       31.0387921166
  H        10.3144239551        7.2419350138       31.0385481925
  H        10.6403105661        7.6094736017       33.2900412563
  H        10.0676459679        6.0265077388       33.8543724667
  H        11.7007673417        6.6132011740       34.2171124851
  C        10.8730273965        5.3916745891       28.6261731588
  H        12.5484896813        5.5149633811       30.1247305654
  H        12.0007264138        7.1131161049       29.6685333869
  C        11.1437334669        5.9396205866       27.2534221402
  H        10.9999362807        4.3195392868       28.5936019237
  H         9.7184238256        5.5212075955       28.7129485436
  C        10.1384991326        5.3762025595       26.2331914279
  H        12.1843547418        5.5877997739       27.0408520048
  H        11.0667683765        7.0066801471       27.4369640677
  C         8.7954927534        6.2096798435       26.2118147830
  H        10.5756782544        5.3076232922       25.2510584042
  H         9.9298125826        4.3961763536       26.4637958053
  C         7.6793435594        5.4504349682       25.5377663984
  H         8.5450868501        6.6354626527       27.1604729511
  H         9.0013837476        7.0474715649       25.5802858638
  C         7.3767680062        4.0632816861       26.2273780037
  C         8.2011482270        4.7434578534       24.3515395705
  C         6.3557730742        6.2988269835       25.3684122515
  C         7.6258667555        2.9619670406       25.4402454539
  C         6.7993861586        3.6905197809       27.4956304369
  C         8.1872759529        3.3846916551       24.2728086815
  C         8.5281635350        5.3149007887       23.1378900796
  H         6.6285756703        7.1525467063       24.9106426675
  H         6.0445678409        6.6051060220       26.3538915230
  C         5.1559659230        5.7039304990       24.6540765188
  S         7.2207557811        1.4866712759       26.1274703238
  C         6.6309585674        2.3202086606       27.5448604112
  H         6.5490734718        4.4956238101       28.2017755482
  C         8.4574296713        2.7518210334       23.0951236411
  H         8.4402810003        6.3297008384       23.0557017947
  C         8.8560398057        4.6143276181       21.9608520784
  H         5.5806745134        5.3870526215       23.6984619207
  H         4.9759673785        4.7429561829       25.1690486788
  C         4.0082819221        6.7064210081       24.5304152454
  C         6.0454647863        1.5304643427       28.7052816784
  C         8.7647628292        3.3296784287       21.8619023724
  H         8.3620203766        1.6652006518       22.9751169041
  C         9.2202126172        5.0093114998       20.7131242945
  H         3.2899278464        6.5017941831       23.7303731944
  H         4.5684955567        7.6120613325       24.2263023111
  C         3.3243941233        6.9555007419       25.8847859304
  C         6.1095869915        0.1033353317       28.9526974940
  C         5.4145755907        2.3596852130       29.8028330426
  C         9.0865329433        2.5133087444       20.6028183400
  C         9.3760301089        3.8967242331       19.8963600993
  S         9.6378372982        6.4559561348       19.9320620512
  H         2.7035220639        7.7894762354       25.6249200480
  H         3.9524554193        7.2667590824       26.6727812576
  C         2.4509999285        5.7948395001       26.3165851903
  N         6.5956850783       -0.8631004632       28.0825867665
  C         5.7067164277       -0.4458475598       30.1811779645
  C         4.9861239333        1.7564332835       30.9823802441
  H         5.2368026128        3.3824623569       29.6076076852
  C         7.8731445990        1.7391631242       19.9718363082
  C        10.3392137343        1.5512266481       20.7465934706
  C         9.6016694027        4.2652008222       18.5745046172
  C         9.6655593947        5.6349985309       18.4193192955
  H         1.5724853050        5.7346872611       25.7468017219
  H         2.9949474226        4.8824943198       26.1055465433
  C         1.8530795127        5.8717168162       27.7524310716
  S         6.6776589043       -2.2784352394       28.8820046938
  N         5.8473172608       -1.7981053123       30.1962072537
  C         5.1289812233        0.3029251055       31.2292387716
  H         4.5735022612        2.4561362051       31.6664176850
  H         7.5173329141        1.0021572907       20.7465994427
  H         8.1672759916        1.2182480434       19.0886998404
  C         6.6640787415        2.5441779983       19.6694006865
  H        10.4201996542        1.0012239820       19.8028290671
  H        10.0592293123        0.7727088792       21.4599480883
  C        11.6574619067        2.2879258218       20.9862319163
  H         9.6543897108        3.4271570471       17.8293247509
  C         9.9318165595        6.4658054583       17.1940922767
  H         1.3767741759        4.9155262254       27.8462183729
  H         1.3213817807        6.8343277908       27.7542369409
  C         2.9116748969        5.8844104091       28.9072854454
  C         4.8867739786       -0.3730159646       32.4660208629
  H         7.0874937940        3.2900469060       19.0422061370
  H         6.3152488175        3.0435121237       20.5762721171
  C         5.5281232386        1.8083631733       18.9974879394
  H        11.7479471786        2.9238364552       21.9401333504
  H        11.8109101490        2.9756816637       20.1699495921
  C        12.7686440459        1.2160129039       20.9160186670
  C         9.8953869102        7.8704182909       17.0432585923
  C        10.0772784990        5.7585578091       15.8615159613
  H         3.2807911173        4.8443468162       29.0063475381
  H         3.6384306215        6.6749358775       28.8803821169
  C         2.1511376209        6.1500287555       30.1778933232
  H         4.7883847846       -1.4593223156       32.3805638278
  C         4.7979509351        0.1222695093       33.7261197211
  H         5.1259977783        1.1032875889       19.7288234332
  H         5.8037430682        1.2114209418       18.0848588686
  C         4.3623378592        2.7557111749       18.6366982558
  H        12.6291539204        0.5930746207       21.7917518463
  H        12.7656583665        0.6091483327       20.0667682653
  C        14.1119648435        1.8473358796       21.0657187165
  N         9.5623371590        8.6884608912       18.0891053158
  C        10.2451459741        8.5610290700       15.9423282332
  C        10.3267540567        6.4739639000       14.7076834121
  H         9.8256838563        4.7348386898       15.7233235084
  H         1.2484281630        5.5229865864       30.2611986093
  H         2.7522292649        5.9291738476       30.9620510991
  H         1.9188548246        7.2244537459       30.2786976519
  S         4.4981462719        1.6846023735       34.1851086686
  C         4.8330981213       -0.8666368939       34.7760595184
  H         4.3112133487        3.5864065690       19.3068197346
  H         4.6550816746        3.2030436128       17.6529288799
  C         2.9334416711        2.1903798904       18.4893926056
  H        14.1633001845        2.8776735480       20.6765093880
  H        14.7202749677        1.2294075871       20.3615722236
  C        14.7088842266        1.8118075520       22.4935483088
  S         9.7207810170       10.2123693793       17.6564838350
  N        10.1358022597        9.9263362656       16.1641294979
  C        10.4901912081        7.9430335270       14.7034893333
  H        10.4244297600        5.9157043122       13.7946587773
  C         4.2970234395        1.0612014344       35.8350846292
  N         4.6043036395       -0.2303148508       35.9872101448
  O         5.1144358939       -2.0163866650       34.5883998801
  H         2.2400715321        3.0163145609       18.4472891164
  H         2.6551454623        1.6256428237       19.3732790917
  C         2.8616165026        1.1846568799       17.2440696792
  H        13.9307431294        1.6837656776       23.2732974760
  H        15.2493151787        0.8889665057       22.6608325585
  C        15.5700294016        3.0559524913       22.8480501818
  C        10.7975468345        8.6480553059       13.5144906148
  S         3.8953561725        2.0666497269       37.1811701940
  C         4.7090210786       -0.9344658948       37.2579366217
  H         2.1139036307        1.4073463740       16.5195922657
  H         3.8115417089        1.1796679400       16.6087679633
  C         2.6863317846       -0.3028326589       17.8256265857
  H        15.6832153647        3.2462136395       23.8911232279
  H        14.9745069146        3.9421006622       22.5415309294
  C        16.9542805558        2.9620581218       22.2855793913
  H        10.5754029721        9.7701320527       13.5811054227
  C        11.1910072805        8.3151722375       12.2461050041
  H         4.1545021912       -0.3633009230       37.9687556037
  H         4.1487758229       -1.9099304864       37.0534658278
  C         6.1545459214       -1.0930607274       37.7177452849
  H         3.5347424186       -0.4686325116       18.5508461985
  H         2.9276830481       -1.0021560493       17.0147018871
  C         1.3552513547       -0.6678472840       18.4966388955
  H        16.7729446821        2.5603846670       21.2473257982
  H        17.3852967329        3.9579255016       22.2164609317
  C        18.0152717474        2.1659260112       23.0952646620
  S        11.7191781015        6.7744558180       11.7635307126
  C        11.3314035829        9.3907664842       11.1921385610
  H         6.4540924787       -0.1106500685       38.0879697845
  H         6.3694729856       -1.8900327274       38.4281194905
  H         6.8826137435       -1.2347182172       36.9096193262
  H         1.3924229710       -1.7639801600       18.6520007989
  H         0.6201246731       -0.4712342505       17.7515889247
  H         1.1203617078       -0.0513405921       19.3501900182
  H        17.8149332106        1.1708067513       22.8277313585
  H        18.0342196271        2.2486292078       24.1932904939
  H        19.0275652360        2.3874733987       22.7031993726
  C        12.1095841041        7.5300501248       10.2202072096
  N        11.8956432806        8.8103452573       10.1097364533
  O        11.1611767722       10.6017873513       11.3690133339
  S        12.8186205302        6.6943497776        8.7851612792
  C        12.0435443085        9.5718928250        8.8936258555
  H        12.1929382210       10.6810318279        9.0421314871
  H        12.9359058015        9.2455556141        8.4683686052
  C        10.7510077630        9.4720352094        8.0839575105
  H        10.9188295353        9.7208031757        7.0184221738
  H        10.2985844310        8.4317961528        8.0528368011
  H        10.0351263819       10.1551239304        8.4356609342
  H         4.7113831016        1.8434507959       12.3843318329
  C         4.0498493726        2.7359468456       12.4357367902
  H         4.7873661691        3.5077056486       12.1232939804
  C         2.9627149330        2.6644235368       11.3861631274
  C         3.5649369083        2.8658583484       13.9083305416
  C         3.5316264933        3.0340504039       10.0170980586
  H         2.1841096329        3.3987827249       11.5951626170
  H         2.5068953323        1.6605600726       11.5569231053
  H         4.1360345503        3.6540116898       14.4434753572
  H         3.4201218418        1.8792971144       14.4605186305
  H         2.6043609520        3.3522375500       14.0485587578
  C         4.3225825154        1.8981713229        9.3058508250
  H         2.7766083925        3.3988199163        9.2901867678
  H         4.2741832418        3.9331148169       10.1705509101
  C         5.2144106755        2.1550057087        8.1054784855
  H         3.5176724010        1.2306366843        9.0729959000
  H         4.9845570923        1.5661030173       10.1199322342
  C         6.4560540578        2.9476837718        8.3484339967
  H         4.5741393301        2.5164727648        7.2635271262
  H         5.4638104594        1.2090274362        7.6392503542
  C         7.5972863194        2.1945849876        8.9312842641
  H         6.8172023973        3.4472025776        7.4889864994
  H         6.2384128886        3.6477414212        9.1089796616
  C         8.9361582467        3.0077187049        9.0660557398
  H         7.6078950340        1.2615440790        8.3499317352
  H         7.3919623309        1.8622512650        9.9409664690
  C         8.6297564351        4.3384219396        9.8015761937
  C         9.3367188445        3.7482114612        7.8863193733
  C        10.0753772512        2.3179688136        9.8630838951
  C         8.8012790753        5.4693407232        9.0195934936
  C         8.1001759336        4.7441700097       11.0268158146
  C         9.2912321618        5.0974190040        7.8038585450
  C         9.7487849973        3.1704654900        6.6948359999
  H         9.6857629637        1.8082802207       10.7536200280
  H        10.4551721002        1.5609985248        9.2148875516
  C        11.2308741916        3.2850769205       10.1535956853
  S         8.4870696526        7.0052845562        9.7653496581
  C         8.0115449697        6.0866921720       11.1397024457
  H         7.9148703461        4.0034253123       11.7856652711
  C         9.7694880896        5.7727108635        6.6947451194
  H         9.7719067854        2.0516208774        6.7428142862
  C        10.1203407717        3.7842164826        5.5176366148
  H        10.8573491316        4.2292429838       10.5463414513
  H        11.7862733886        3.5561711836        9.2421070881
  C        12.3107757434        2.8536384398       11.1885008648
  C         7.5164322683        6.8147560790       12.3433231062
  C        10.1131445802        5.1249461320        5.4428356436
  H         9.7153779440        6.8840024612        6.6392779003
  C        10.5176870027        3.3816604691        4.2144223014
  H        13.2568959433        3.4076128763       11.0773455102
  H        12.5844969035        1.8837854581       10.8702568386
  C        11.7967661664        2.9422258705       12.6057711704
  C         7.5561515912        8.1630034549       12.6231814617
  C         7.0166069593        5.9573857347       13.4583858925
  C        10.6120675688        5.8326747926        4.2184499280
  C        10.8884450787        4.4827870064        3.5176616388
  S        10.7926035999        1.8831371887        3.4336349164
  H        12.1567116346        3.8943138535       13.0635357118
  H        10.7528385060        3.1468450857       12.6373946164
  C        11.9353563658        1.6268208730       13.4029014983
  N         7.8618588966        9.1900573997       11.6934095140
  C         7.1498658976        8.6169940391       13.8717600605
  C         6.5798882343        6.4526540602       14.7191992577
  H         6.8457882909        4.9004913927       13.2702927603
  C        11.8251721011        6.6746093069        4.4929873778
  C         9.5461183982        6.6588792159        3.4385773926
  C        11.4063890822        4.1502796233        2.2286355520
  C        11.2813876476        2.7848841402        1.9840120395
  H        12.9283011062        1.1695042891       13.3415103838
  H        11.1592455825        0.8908631047       13.0253736553
  C        11.7509723296        1.9103388893       14.8597556510
  S         7.6841521319       10.5709055152       12.4484445968
  N         7.3610443295        9.9970057552       13.9358124419
  C         6.6664952018        7.8887076596       14.9709408919
  H         6.0768649851        5.7989739491       15.4425792885
  H        11.6160235566        7.5607736346        5.0900293269
  H        12.1808176085        7.0123900674        3.5345215824
  C        13.0883031480        5.8790043899        4.9804698258
  H         9.1323896108        7.2628623087        4.2274110994
  H        10.0039971219        7.3410201457        2.6978070351
  C         8.4087747122        5.8175294559        2.7391333254
  H        11.5644193128        4.9424822799        1.5806475044
  C        11.5451346012        2.0123846706        0.7174957609
  H        10.8219362313        2.4774578984       15.0520301487
  H        11.4309099306        1.0147424523       15.4055914582
  C        12.9935934242        2.4674855974       15.5205586601
  C         6.3548478012        8.5557415565       16.2208721689
  H        12.8119482343        5.5994273151        5.9717407273
  H        13.2731385601        5.0443260757        4.3710894886
  C        14.1909387954        6.9734915817        5.1999329988
  H         7.9389454475        5.0799424820        3.4081681511
  H         8.9050665860        5.2038240365        2.0315449715
  C         7.3468823328        6.6153035701        1.9431508531
  C        11.6287242287        0.5920373596        0.6382085415
  C        11.7712393778        2.7436395332       -0.5472490808
  H        13.4672222796        3.3127781860       14.9383284953
  H        13.7199450454        1.6819359526       15.4998565270
  C        12.7824233449        3.0224122453       16.9303501833
  H         6.2952606531        9.6191043151       16.1814928614
  C         6.2473751081        8.0571997170       17.5197565561
  H        14.0091588547        7.5555012834        6.0920605766
  H        14.2721588242        7.6220964909        4.3448560917
  C        15.4665149898        6.1836653895        5.2165625938
  H         7.1299900438        7.4632303195        2.5738017863
  H         7.7194928899        7.0492822661        1.0000769030
  C         6.1375774430        5.7807587230        1.5631707592
  N        11.5529623280       -0.2694264852        1.6774825190
  C        11.8999517160       -0.0585070596       -0.5860161148
  C        11.9694602956        2.0636788981       -1.7226384541
  H        11.7739603875        3.8327038243       -0.6895043188
  H        12.1836579937        4.0143482598       16.8460808804
  H        13.7711292171        3.2400239588       17.4052078018
  H        12.3278084203        2.2221389074       17.5368897967
  S         6.2903244938        6.4243366348       17.9758796158
  C         6.0224506944        9.0304753527       18.6307331368
  H        15.2986265474        5.0532215430        5.3377638991
  H        15.9843842360        6.3210791657        4.2927966331
  C        16.3488702883        6.4856954825        6.4116633978
  H         5.8463989318        5.2953779103        2.4735020002
  H         6.3228874342        4.8971190490        0.9554523015
  C         4.9647472264        6.6307875795        1.0799512963
  S        11.6540216479       -1.8105349243        1.2005052105
  N        12.0071390452       -1.4568288020       -0.3653171720
  C        12.0804704966        0.5950086629       -1.8295654992
  H        12.0989979707        2.5686300481       -2.6649645230
  C         5.8622487580        6.9645558497       19.6024304120
  N         5.7589388054        8.3176182053       19.7235517428
  O         5.9846996874       10.2370200280       18.5936232767
  H        16.7541417034        7.5341858291        6.3837884255
  H        15.7941004171        6.5266081394        7.3783446842
  C        17.4782432201        5.4401794556        6.5690413708
  H         5.2820471165        7.4152237574        0.4383005487
  H         4.3194398451        6.0487415863        0.3491250875
  C         4.0634481534        7.0286375445        2.2838857044
  C        12.5303667936       -0.1865226821       -2.9932451402
  S         5.6081344297        5.9135999401       21.0058397083
  C         5.4607291939        8.9256766125       21.0078870322
  H        17.1536467065        4.5327631568        7.0873062892
  H        17.8580905682        5.2464605020        5.5066444283
  C        18.5757467711        6.0249426367        7.4483300905
  H         4.6683455299        7.0356157888        3.2102695404
  H         3.3619735522        6.1859890876        2.3727264579
  C         3.3555811400        8.3657356996        2.1306329684
  H        12.2380970238       -1.1946010668       -3.0162448706
  C        12.9700587290        0.2125477105       -4.1977690358
  H         4.5731485914        8.4509271022       21.4566206636
  H         5.2198037488        9.9206897645       20.7549990840
  C         6.6603505046        8.8907398403       22.0264516587
  H        18.8240346627        5.3977361037        8.2887530449
  H        18.1582028916        6.9497961803        7.9291672000
  C        19.8829233560        6.3378341009        6.8253897387
  H         2.8494416245        8.4243357186        1.1819760736
  H         2.4838714522        8.4748045449        2.7890260480
  C         4.3230647456        9.4789614206        2.4432962946
  S        13.4769896322        1.7163211038       -4.7016119265
  C        13.0389015904       -0.8360485997       -5.2679882351
  H         7.6000968435        8.4923408857       21.7179163560
  H         6.3951546364        8.4004936449       22.9772990914
  H         6.8036263448        9.8901075532       22.3129305655
  H        20.2986126026        5.4387578892        6.4280564699
  H        19.6077666812        7.0257631518        6.0044700430
  H        20.6273320974        6.9115725366        7.3884438775
  H         4.7931180363        9.3672505343        3.4308296280
  H         5.1492558526        9.5524724194        1.7490018112
  H         3.7346052687       10.3703327374        2.5105736182
  C        13.8740512538        1.0328082840       -6.2678980771
  N        13.7697658511       -0.3350621541       -6.3073284114
  O        12.5435909246       -1.9402350710       -5.1334757622
  S        14.6340558087        1.8212305147       -7.6366718628
  C        14.0173948095       -1.1185734515       -7.4578842386
  H        14.1996864411       -2.1542630782       -7.1664838027
  H        14.8861963344       -0.8130411100       -8.0097435098
  C        12.8557700964       -1.0470505395       -8.4842316941
  H        13.2349920957       -0.4307760586       -9.3466602140
  H        11.9019470712       -0.4795902468       -8.3509744067
  H        12.5475219603       -1.9815153798       -8.8188429940
