352
 i =    11600, time =     5800.000, E =       132.3946883060
  H        10.3422889441        4.2661293899       32.3559921244
  C        10.4058295902        5.3654924467       32.4457657137
  H         9.3725915511        5.7222809654       32.6953479507
  C        10.9547415069        6.0722170456       31.1474951340
  C        11.3567061631        5.7084130795       33.6171385117
  C        10.9472316674        5.0913834747       29.9562157311
  H        10.4384766768        7.0182331616       30.8951607288
  H        12.0144010989        6.2003891313       31.3142012545
  H        10.9773381316        5.2353380759       34.5150175475
  H        12.4225183462        5.4529253242       33.4590628718
  H        11.2985920931        6.7547712710       33.7259409060
  C        10.5882101934        5.9153931502       28.7080569230
  H        10.1457477450        4.3718803130       30.1617491176
  H        11.9252289141        4.6366350176       29.8102457767
  C        10.5056045840        5.1952589256       27.3502666011
  H         9.5884583434        6.3825919020       28.8005463796
  H        11.4546612263        6.6248241578       28.6388367124
  C         9.1583234580        4.6294761569       26.8137788611
  H        11.2711279065        4.4631440263       27.4681960749
  H        10.8977708651        5.8712511253       26.6406778912
  C         8.2279516071        5.6444641745       26.1398603687
  H         9.4099413290        3.8077190543       26.1275144531
  H         8.6617738292        4.2514251868       27.6830887511
  C         7.0561149938        5.0366579999       25.3138609336
  H         7.8649083116        6.3747317318       26.9308660149
  H         8.7907204929        6.1460798373       25.3570249395
  C         6.6271954781        3.7160963323       25.8760974611
  C         7.6000911901        4.3930675262       24.0631860674
  C         5.7889425214        5.8934797075       25.0494223564
  C         6.9955657563        2.5820332404       25.1051401833
  C         6.0119684300        3.3300632011       27.0463233266
  C         7.5509045346        3.0497441434       23.9417390389
  C         8.0117001865        5.0603058718       22.8888667514
  H         6.0085551880        6.6377376608       24.2602974204
  H         5.4661677870        6.3444089608       25.9738866803
  C         4.6537780681        5.1054475782       24.4199339083
  S         6.6877893883        1.1173689265       25.9903959908
  C         5.9174582966        2.0004419713       27.2913781440
  H         5.6182024788        4.1019840200       27.7817104875
  C         8.0060427795        2.5050887351       22.7933076245
  H         7.9442420934        6.1137219430       22.9967300290
  C         8.4432620303        4.5240984543       21.7226322750
  H         4.8815531174        4.8617595287       23.3889857189
  H         4.4799035411        4.2037504410       25.0086162410
  C         3.4182611908        6.0487821507       24.2724621756
  C         5.4505963940        1.3793428301       28.6022336881
  C         8.4826954862        3.1384253688       21.6200014163
  H         8.0064721325        1.4262137541       22.7370723489
  C         8.9445792894        4.8914649581       20.4992657393
  H         2.6930916736        5.4679187134       23.6809714777
  H         3.5332352228        6.7909595912       23.5264791031
  C         2.6970587076        6.5085543184       25.5123984717
  C         5.4798545120       -0.0007343969       28.9576700133
  C         5.0485136211        2.2648559766       29.7438112357
  C         8.9171899518        2.4745723067       20.3855854543
  C         9.2115806225        3.7965424225       19.6525247133
  S         9.2232655613        6.4268251753       19.7312932040
  H         1.8365501839        7.0710352323       25.3315131393
  H         3.3494263384        7.1956218329       26.0510554023
  C         2.1882343086        5.3810115710       26.3530724925
  N         6.0578490304       -1.0037408165       28.1527978628
  C         5.2526562347       -0.4396891782       30.2455542894
  C         4.7282717951        1.8110983068       30.9958443719
  H         4.8908639612        3.3451799419       29.6652288006
  C         7.7141232373        1.7832119546       19.6966470595
  C        10.1727390865        1.5703868263       20.6167565662
  C         9.6503422544        4.2908255053       18.3714129903
  C         9.6705008528        5.6334985657       18.3343064958
  H         1.5421296656        4.6337611932       25.8166844954
  H         2.9853639053        4.7957663863       26.7697836510
  C         1.2205466402        6.0468847134       27.3677726611
  S         5.8962905965       -2.4194776915       28.9477728657
  N         5.3853780260       -1.8091728148       30.3818188914
  C         4.7745892267        0.3113101976       31.3018031069
  H         4.4191580810        2.4533609024       31.8450550898
  H         7.3297900693        1.0099775094       20.3874160499
  H         8.0397034572        1.1743333139       18.9083796195
  C         6.5149586622        2.6328301894       19.3479090246
  H        10.3767146219        1.2043284922       19.6581648791
  H         9.8962533700        0.7018178071       21.2003624753
  C        11.3810241740        2.2050346661       21.2770222822
  H         9.9116008313        3.6429404267       17.5604175352
  C         9.9289819286        6.4253534742       17.0850553512
  H         0.4348889068        6.5187282035       26.9641951451
  H         1.6762185816        6.8464391314       27.9571191802
  C         0.6435754496        5.0274070015       28.4235392496
  C         4.4724012803       -0.2803090485       32.5321430669
  H         6.7898079417        3.3280236776       18.4973968025
  H         6.2937118049        3.3371865801       20.1363123128
  C         5.4050739467        1.8174417657       18.8503054091
  H        11.2576152672        3.0025714391       22.0669317543
  H        11.8056030396        2.9299437051       20.5630654520
  C        12.3437558338        1.1362416029       21.7668844991
  C         9.9569099667        7.8602852505       16.8963075572
  C        10.0951500343        5.6915370383       15.7898898541
  H        -0.3987062748        5.0274508521       28.3507336883
  H         0.9810713323        4.0487215996       28.1865939096
  C         0.7853301139        5.3722107086       29.8316473065
  H         4.3550983586       -1.3481632769       32.4663791180
  C         4.2544622351        0.1249696124       33.8094417445
  H         4.8113937417        1.3762050460       19.6518787732
  H         5.8269156267        0.9532809445       18.3425900629
  C         4.4506642130        2.6093338665       18.0283737001
  H        11.8142224378        0.7467719085       22.7041319092
  H        12.5314343935        0.2912217763       21.1180303969
  C        13.7620123006        1.5977991820       21.9190530609
  N         9.6816836697        8.7887231790       17.8572565689
  C        10.2201440404        8.4437972831       15.6762128910
  C        10.3954890648        6.2914477876       14.5671347182
  H        10.1655361733        4.6793174563       15.7359940241
  H         0.2558311647        4.6572565498       30.5369941370
  H         1.8567769291        5.5020146813       30.0187628263
  H         0.2917339456        6.2816443327       30.0550854051
  S         4.2207687344        1.8012114932       34.2860942629
  C         4.2300008745       -0.8606748222       34.9341245636
  H         4.4381886185        3.6655495718       18.4123160714
  H         4.7654608243        2.7625257867       17.0275861557
  C         3.0279248029        1.9894911156       17.9944914390
  H        14.1044410981        2.2735089923       21.1904582125
  H        14.3773611710        0.7540028400       21.7087598611
  C        14.0509340477        2.2227930321       23.2456832362
  S         9.6720963452       10.2565171548       17.2209722135
  N        10.1870437654        9.8264539552       15.7476293167
  C        10.4662220251        7.7114333220       14.4712589290
  H        10.4459807112        5.6006984569       13.7205357314
  C         3.9310357897        1.0824795647       35.8733957914
  N         3.9632757714       -0.2276779794       36.1030232901
  O         4.3216414117       -2.0435823161       34.6587899842
  H         2.2494568021        2.6130443761       17.4667755247
  H         2.6634711340        1.9071350470       19.0458906822
  C         3.0854980389        0.5995020438       17.3511183145
  H        13.1933652921        2.7431096115       23.5759791933
  H        14.2594441759        1.4529893463       24.0904633292
  C        15.2040378319        3.3097877461       23.2071050536
  C        10.8660719029        8.4575490950       13.3345079169
  S         3.7178742569        2.0522171330       37.2622137143
  C         3.9599062216       -0.9258820089       37.3891654652
  H         2.6176330914        0.6565232362       16.4063053751
  H         4.0444092058        0.1744816918       17.0994711757
  C         2.3819670086       -0.2749084605       18.3270419211
  H        15.2644367133        3.9408733618       24.1232105416
  H        15.1923744109        4.1203086973       22.4125485715
  C        16.5785915692        2.5976881761       23.3652388608
  H        10.4237132139        9.4113554479       13.3906678672
  C        11.4220479494        8.1527131622       12.1257711946
  H         3.3266477143       -0.4760277172       38.1733762737
  H         3.6165825197       -1.9311163587       37.2813116597
  C         5.4200348910       -0.9622371244       37.9149946176
  H         1.4062149813        0.0261811674       18.5571019775
  H         2.9617958061       -0.2791673299       19.2565615104
  C         2.0649466135       -1.6551996688       17.7557770785
  H        17.2467150088        3.2101282871       23.9809077871
  H        16.5562983288        1.6544927135       23.8992772653
  C        17.3713213918        2.3398488609       22.0495067125
  S        12.0868171941        6.5903540008       11.6362953821
  C        11.3934365033        9.2879521523       11.0802894915
  H         5.4864468229       -1.8107969897       38.6737257490
  H         6.0663085508       -1.0854677847       37.0780852954
  H         5.6991836072       -0.0817390446       38.4873903269
  H         1.7375706846       -2.3419671802       18.5223029567
  H         2.9396424514       -2.0721581560       17.2084140403
  H         1.3982171284       -1.4758065974       16.9509233099
  H        17.1358068564        3.2009077381       21.3861294406
  H        17.1578658422        1.3981722758       21.5653360164
  H        18.4314986446        2.4095709477       22.4213101981
  C        12.2673972506        7.4310697158       10.0865258862
  N        11.9854661871        8.7483739253       10.0112098337
  O        10.9848059294       10.4593729436       11.2550805108
  S        13.1276135808        6.6414702245        8.7352291655
  C        12.0764840933        9.4431990547        8.7233569922
  H        12.4476206953       10.4600627091        8.9400959269
  H        12.9639724466        9.1691971987        8.2382418648
  C        10.7654765259        9.5028929476        7.9434323395
  H        10.0274340317        8.8083671114        8.4019068311
  H        10.2819992571       10.4251800278        8.2289668420
  H        10.8558206411        9.4023295537        6.8667512508
  H         4.5212282310        1.9655937246       12.6149073896
  C         3.7876037484        2.7410464876       12.6055939156
  H         4.2801312909        3.6595124224       12.8474113285
  C         2.8124166307        2.7885480956       11.3935770910
  C         2.9363118597        2.4238372764       13.8411109302
  C         3.6251297932        2.8373362064       10.0355645835
  H         2.1665646734        3.7374508006       11.3895284326
  H         2.1854182659        1.9141809718       11.3990272247
  H         2.4493518494        1.4245290767       13.8326008977
  H         2.1334740828        3.1767696086       14.1203578437
  H         3.6159071790        2.3490332171       14.6366160780
  C         4.4407573014        1.5840599418        9.6185519779
  H         2.8962886381        3.1511303711        9.2811947095
  H         4.3420215682        3.6446647420       10.2121224377
  C         5.4728375046        1.9523895597        8.5604282929
  H         3.7020403378        0.8376356662        9.2424688646
  H         4.9725928285        1.0027671893       10.3793612095
  C         6.6161112394        2.7718746974        9.1147559315
  H         4.9577783833        2.4592076512        7.7113214476
  H         5.9248959378        1.0471615931        8.1527690646
  C         8.0092210945        2.2162616573        9.1046308652
  H         6.5550842152        3.6798971297        8.5249415321
  H         6.3384737641        2.9284206339       10.1474502032
  C         9.2002760160        3.1712873095        9.2644668023
  H         8.2014483258        1.6504912707        8.1827281378
  H         8.0055135007        1.4550054886        9.8550032245
  C         8.7055262675        4.4618504856        9.9048437506
  C         9.6007167609        3.8350210827        7.9772660462
  C        10.2989749662        2.4911919411        9.9997031078
  C         8.8454560777        5.5692449967        9.0292242390
  C         8.2189851075        4.8659977504       11.1451421490
  C         9.4451801418        5.1843940510        7.8610313594
  C        10.1431528858        3.1914708178        6.8006482588
  H         9.9665592610        1.9780361311       10.8933186247
  H        10.8808445912        1.8109253433        9.3557810370
  C        11.4816197235        3.4149125100       10.4854169386
  S         8.2684948862        7.0567036262        9.6113540815
  C         7.8398769051        6.1637789552       11.0682906884
  H         8.0197131948        4.0932376426       11.8123618890
  C         9.9005447307        5.7954374687        6.6816561395
  H        10.4474824021        2.1672960395        6.8924951951
  C        10.5285998061        3.8564544784        5.6345631507
  H        11.0175102370        4.2468002116       10.9865387303
  H        12.0424162344        3.9252713109        9.7191396101
  C        12.4338146398        2.7685752210       11.4985614988
  C         7.4087030504        6.8273025447       12.3423235634
  C        10.5033672551        5.2076121232        5.5487003038
  H         9.7875537394        6.8616006653        6.6923514618
  C        10.9518211767        3.4494062656        4.3794985579
  H        13.3859546459        3.1235960892       11.3965424118
  H        12.5114491761        1.7223724541       11.3407837028
  C        11.9352401888        3.0649905753       12.9722901876
  C         7.5027639110        8.2067237381       12.6499609331
  C         7.0750403774        5.9769962829       13.5232385637
  C        10.8729826332        5.8854950566        4.2754591190
  C        11.2132598731        4.5220177517        3.5646849793
  S        11.0890485113        1.9313046249        3.6137137098
  H        12.0779476531        4.1636724484       13.1094734169
  H        10.8957008065        2.9634082246       13.0132832810
  C        12.7226208085        2.1705492145       13.9648994172
  N         7.9894482254        9.1880633285       11.7821748050
  C         7.2846245449        8.7706782172       13.8745044546
  C         6.8865677676        6.4862290886       14.7857079915
  H         7.0310679106        4.9121154912       13.4038863946
  C        12.1546120662        6.7099346729        4.5608773694
  C         9.6709028256        6.5963066363        3.5813814562
  C        11.5317690689        4.1314523350        2.2713579978
  C        11.4798390698        2.7787475373        2.1500663496
  H        13.6938612380        2.6300644607       14.0960654385
  H        12.8555098346        1.1091963074       13.6695308409
  C        12.0628705233        2.3162455990       15.3178075974
  S         7.9019983866       10.6838415361       12.4442544878
  N         7.3275962929       10.2139102389       13.8900352564
  C         7.0231239589        7.9740265326       15.0109314120
  H         6.8666318875        5.8826945359       15.5920774600
  H        12.1594092820        7.3967956533        5.3683225408
  H        12.3500920779        7.2981258437        3.6531989646
  C        13.4803482749        5.9299182190        4.7770027920
  H         9.4143514625        7.4469939155        4.1684591730
  H         9.9854592674        6.9704128052        2.5672978882
  C         8.4044489264        5.6966609369        3.3166399154
  H        11.6986367574        4.8920174249        1.6081658963
  C        11.7329648069        2.0141608116        0.9220524205
  H        11.6511862952        3.3044800867       15.3825239957
  H        11.2295795808        1.6303900031       15.3606663554
  C        12.9126938777        1.9698220579       16.5422511438
  C         6.9307408965        8.5944426406       16.2731114130
  H        13.2869178125        5.3600529381        5.7314518567
  H        13.6622105378        5.2996461318        3.9152490674
  C        14.6039710628        6.8640034029        5.1646979665
  H         8.0763505220        5.1539179493        4.2168721656
  H         8.7451345653        4.8554253095        2.6571601797
  C         7.2472542264        6.4760088801        2.6364408333
  C        11.7547062106        0.6077064808        0.7694989768
  C        11.9061768063        2.7588133649       -0.3656862046
  H        13.7353612003        1.2930696297       16.3464549612
  H        12.3030828407        1.4476103640       17.2125348854
  C        13.4289587835        3.2453724875       17.3054122558
  H         7.3205796886        9.5973245584       16.2051320020
  C         6.5160914738        8.1938570868       17.4737150643
  H        14.5055475395        7.5275006214        6.1088438339
  H        14.6440154269        7.6322733552        4.3498063273
  C        15.9183123161        6.0713679654        5.3410297055
  H         6.9667769149        7.1252005436        3.5115574600
  H         7.7107448989        7.2321427264        1.9245405679
  C         5.8849628130        5.8409194044        2.3258236074
  N        11.7023396484       -0.3014710618        1.8011908414
  C        11.9180679498       -0.0888232919       -0.4383485035
  C        12.1281719939        2.1250138283       -1.5575620853
  H        11.7134664937        3.8068814783       -0.4228477991
  H        14.2752300431        3.7483049483       16.6976660990
  H        13.7451053970        2.9492082879       18.3384694360
  H        12.6797210130        3.9254392207       17.5292006039
  S         6.0700310666        6.6040171125       17.9584326420
  C         6.5550600769        9.2041758876       18.5706594752
  H        15.6083182408        5.2532509291        4.6943850300
  H        16.7734999486        6.5800532975        4.8915971657
  C        16.1101819088        5.5280298436        6.8002013154
  H         5.2470136995        5.6035654837        3.1135632887
  H         6.0339928031        4.8811163091        1.9231130213
  C         5.1298148749        6.9613971267        1.6028054871
  S        11.4554940295       -1.8495092463        1.1945926851
  N        11.9624626222       -1.4865192834       -0.3338919649
  C        12.2145250667        0.6483360230       -1.6625319370
  H        12.1675654968        2.7681151799       -2.4238242063
  C         5.9396173371        7.3209075418       19.6502357788
  N         6.0835270791        8.5951031797       19.7108427307
  O         6.8378798665       10.4128290899       18.4526699686
  H        15.9209046134        6.3097126884        7.5219875198
  H        15.3809801946        4.7377727872        6.7950675812
  C        17.5167728330        5.0431612584        7.0146435615
  H         5.6484846580        7.1045844289        0.6136792041
  H         4.1368258367        6.5991901859        1.2482417184
  C         4.8046515784        8.2443010675        2.2913799323
  C        12.3874070922       -0.1098358756       -2.8699783034
  S         5.3496667491        6.4446811230       21.0231985323
  C         6.2848970638        9.2099575947       21.1035224680
  H        17.7383664129        4.7162425311        7.9943676518
  H        17.6680550693        4.1765460224        6.3520324532
  C        18.5377957500        6.0958614594        6.8705349896
  H         5.7568435585        8.8148343696        2.3599127388
  H         4.5111784861        8.0524572522        3.2671681459
  C         3.7779652612        9.1542091660        1.6512320063
  H        11.9601110345       -1.0815938566       -2.9137992908
  C        12.9702925627        0.2550587258       -4.0954621982
  H         5.5873508510        8.8994526103       21.7851683065
  H         5.9898007562       10.2654456734       21.0211270086
  C         7.7469590162        9.1588554567       21.6965148985
  H        18.0207433553        6.9169059480        7.3715523846
  H        18.7031080434        6.4102738280        5.8163062857
  C        19.7360190578        5.8414114463        7.7223514488
  H         2.9729891411        8.4897996506        1.2072375665
  H         3.3543277061        9.7943163323        2.3489188808
  C         4.1948998197       10.2502630023        0.6331823979
  S        13.6398000331        1.8214666636       -4.4497992563
  C        13.1395047519       -0.7342850902       -5.1894095756
  H         7.6895562364        8.3795427664       22.3774338089
  H         8.0067593561       10.0542590937       22.2682482126
  H         8.5854215725        8.9209641585       21.0376059671
  H        20.4784048355        6.6853418642        7.8089595215
  H        19.5445505192        5.7185801358        8.7633788753
  H        20.3493869347        5.0818064687        7.3817900246
  H         3.5474185864       11.0791808540        0.6109409004
  H         5.1964195144       10.6176092880        0.7407226167
  H         4.1222351034        9.8682318604       -0.3947577556
  C        13.9675352924        1.2149692502       -6.0301388377
  N        13.8160775647       -0.0982567232       -6.1671619312
  O        12.9299328991       -1.8806784084       -5.0449183144
  S        14.7787570562        2.1584503954       -7.3022101258
  C        14.1536552080       -0.7377518990       -7.3934744913
  H        14.3254002301       -1.7941677522       -7.3397486923
  H        15.1524810734       -0.6217024649       -7.6579439944
  C        13.1146244279       -0.4536266459       -8.4957604777
  H        12.5790795216        0.4332898783       -8.3510841010
  H        12.4450089577       -1.3608139493       -8.4228245279
  H        13.4785733107       -0.4852316065       -9.4672403901
