352
 i =     1900, time =      950.000, E =       209.9983807520
  H        11.1345477573        7.0732552390       32.6355247984
  C        10.9604412720        5.9611198991       32.6707902880
  H        11.9855196318        5.5551090773       32.7356580024
  C        10.0650102803        5.3899919299       31.5895285759
  C        10.5389038796        5.8541420228       34.2478862086
  C        10.5949459001        5.8291097273       30.2408319247
  H        10.1599937359        4.3392739443       31.6603330842
  H         9.0921665469        5.6611025310       31.6243132879
  H        11.0334356795        6.5217433914       34.6873559074
  H         9.5589545647        6.0730927346       34.4046078686
  H        10.8452111785        4.9879835940       34.5852336592
  C        10.1250437903        4.8810883996       29.0921390411
  H        11.6090223002        5.9054444084       30.2864861537
  H        10.1947185065        6.6991593467       30.0236684850
  C        10.0962900610        5.6510967440       27.7050479798
  H        10.6842440410        3.9765180016       29.0277513714
  H         9.1369599967        4.5227423511       29.3569260926
  C         9.3002959640        4.9269713662       26.5308146948
  H        11.0527964902        5.8203654847       27.3045313953
  H         9.6659825229        6.6095869752       27.8055470863
  C         8.0445351531        5.8522770767       26.1305528039
  H         9.9246494708        4.6088954495       25.7250264750
  H         8.8235441117        3.9874593405       27.0907378160
  C         6.9701633302        5.0732606713       25.2894172705
  H         7.5979397216        6.4539910428       26.8956610252
  H         8.4026133437        6.6191687723       25.3736077433
  C         6.6000611515        3.7689636517       25.9438548205
  C         7.4505734061        4.4498964824       24.0394854020
  C         5.7248924704        5.9380706281       25.1254615356
  C         6.8841768107        2.6690237724       25.1834579687
  C         6.0459434593        3.3596617841       27.1718890339
  C         7.4179012076        3.1251725425       23.9488399911
  C         7.8525124736        5.0945797861       22.9146578551
  H         5.9385051349        6.8140945259       24.2846112890
  H         5.6188891446        6.2936057152       26.2122364284
  C         4.4699833976        5.3219475952       24.4168216769
  S         6.6229135074        1.1789749271       25.9839166766
  C         6.0480904201        2.0845788622       27.3845112664
  H         5.6525373292        4.1531036036       27.8625863054
  C         7.7655329321        2.5706719508       22.7901618459
  H         7.9309129730        6.1061413223       22.9513096188
  C         8.2303028972        4.5463395133       21.7486459645
  H         4.9774863206        5.0304103154       23.4682792277
  H         4.1545931712        4.3840699892       24.9792538537
  C         3.2211310115        6.3704541154       24.3556791725
  C         5.7791202025        1.4140658295       28.6469414817
  C         8.3362748880        3.2207890793       21.7162382583
  H         7.7916654194        1.6041936350       22.6962929137
  C         8.7741336501        4.9448943837       20.5634060868
  H         2.4831039598        5.8048324004       23.8229411582
  H         3.4056189333        7.2737247613       23.8313115670
  C         2.6928319850        6.6715067702       25.7509756162
  C         5.8059832199        0.0256133690       28.9029665664
  C         5.2786992549        2.1671584764       29.8630805149
  C         8.8757592458        2.5207651625       20.5176498751
  C         9.1259491127        3.8119045770       19.8546961715
  S         9.0274940654        6.3542744755       19.8404300154
  H         1.9905385920        7.3893038064       25.4346844633
  H         3.5167001664        7.1087414820       26.2596132500
  C         2.1080548928        5.4142821659       26.3822137326
  N         6.0763070904       -0.9400529224       27.9472950089
  C         5.6096428451       -0.5270617601       30.1971630719
  C         5.0052860677        1.6215110175       31.1076165946
  H         4.9922422585        3.2722734478       29.7667701663
  C         7.7737375983        1.7069323794       19.7660912983
  C        10.1036773126        1.6871509564       20.8550028563
  C         9.4966490115        4.2481078375       18.5058463196
  C         9.5665893468        5.5247175929       18.4115212672
  H         1.5604180952        4.7631078241       25.6290212866
  H         2.7358201339        4.6525742837       26.8878663156
  C         1.0951305514        5.7117344934       27.5020174031
  S         6.1386918022       -2.3067439380       28.7128561609
  N         5.8850146173       -1.8824236152       30.2596671931
  C         5.2805805114        0.2516974586       31.4197226463
  H         4.8156490774        2.3043862478       31.9364513624
  H         7.3384427586        0.8998323987       20.4309859726
  H         8.2931195120        1.2847647645       18.8542519019
  C         6.4880494530        2.5106562375       19.5770313869
  H        10.6174604374        1.2376809946       19.9097763246
  H         9.8701824982        0.7530254054       21.4375400061
  C        11.1768237873        2.4285049313       21.5853635000
  H         9.6998981815        3.5110602740       17.7891599402
  C         9.8380911188        6.3771419813       17.1966516988
  H         0.5011106097        4.9035001952       27.4862876445
  H         0.5088096074        6.5180606736       27.2265891782
  C         1.7055567498        5.8259808922       28.8400207723
  C         4.9769363822       -0.5574773681       32.5035523940
  H         6.7741505095        3.1532694212       18.7402567221
  H         6.1006400628        3.0504223776       20.4107702180
  C         5.3416331268        1.6856787907       19.0094859091
  H        10.8042084010        2.7615272647       22.5192381572
  H        11.2010334253        3.4151395404       21.0178965531
  C        12.4378471853        1.6002854890       21.7972056353
  C         9.9946874176        7.7944959530       17.1216774502
  C        10.2180886538        5.6332853357       16.0074218526
  H         2.3036694702        4.9412265737       29.0497952456
  H         2.3270664808        6.7070714082       28.6733718399
  C         0.7031238377        5.9395043303       29.9870576113
  H         5.0162181258       -1.5977350792       32.3341968224
  C         4.6437502797       -0.2026157070       33.7950129990
  H         4.9163148576        0.9052624932       19.6067475094
  H         5.8817240706        1.2317609095       18.0979062165
  C         4.2695774912        2.5753948704       18.4535722326
  H        12.1897335047        0.8444571934       22.4401627454
  H        12.7837451656        1.2213479362       20.8881416746
  C        13.6824607378        2.5436669819       22.1576290942
  N         9.7010859856        8.7087089606       18.0905490140
  C        10.3529835875        8.4632749517       15.9210615164
  C        10.4900196800        6.2500413672       14.8406172349
  H        10.0727889844        4.6030556585       15.9407835971
  H         0.9916376575        5.2001449709       30.7557672718
  H         0.6957590643        6.9602313832       30.4537231426
  H        -0.2755529780        5.6598636523       29.6532708846
  S         4.2093901803        1.3761424549       34.2934666910
  C         4.5224732115       -1.3004732842       34.7960903350
  H         4.1719666541        3.3324063442       19.2073271860
  H         4.6004490977        3.0070771461       17.5595987727
  C         2.9206011732        1.7078896998       18.4127136356
  H        13.3156051772        3.3172715200       22.9181285120
  H        14.0421214571        3.0307447963       21.2928460988
  C        14.8073171378        1.6346984999       22.6545271039
  S         9.9714915717       10.1775809532       17.5356557199
  N        10.3160299890        9.8543047445       15.9721829485
  C        10.6731612056        7.7259703807       14.7440165623
  H        10.7952323140        5.6009818699       13.9836104213
  C         3.9962384584        0.6198444259       35.8936161078
  N         4.0677497276       -0.7183700271       35.9186197258
  O         4.6498757195       -2.4751934108       34.5079100649
  H         2.1321017161        2.2446776202       17.9893686506
  H         2.7809190642        1.5045922153       19.4773342444
  C         3.0134973008        0.3852732005       17.6519487458
  H        14.4566153816        0.9381341441       23.4428124997
  H        15.1906577767        0.9778411861       21.8725192727
  C        15.9597012388        2.5556810615       23.1989903488
  C        11.0030708905        8.4642382719       13.5044016283
  S         3.3551250432        1.3538952297       37.3734646410
  C         3.9649198878       -1.5828425255       37.0790691952
  H         2.4516965297        0.4306281784       16.7145672624
  H         3.9627217803        0.1176241414       17.5017631472
  C         2.1719678914       -0.6590452341       18.2897831496
  H        15.6276072292        3.0689974858       24.1796833369
  H        16.1605466307        3.3422129014       22.4272582310
  C        17.3168581662        1.9963116792       23.4298854690
  H        10.6298241200        9.3484886423       13.5112722497
  C        11.5093281462        8.1244052215       12.2555080850
  H         3.3952577668       -1.3227339260       37.9296697234
  H         3.3876070461       -2.4448742567       36.7961365941
  C         5.4469319036       -1.8971821701       37.5548224051
  H         1.1116797872       -0.3889894343       18.3227258354
  H         2.4157303018       -0.7841550126       19.4379347434
  C         2.3621631950       -2.0242011207       17.7380386200
  H        17.8381708053        2.6656140063       24.1304013481
  H        17.2216174991        0.9446697861       23.7413189896
  C        18.0656465546        2.0969362692       22.2055568427
  S        12.0445051687        6.5279900286       11.8451979397
  C        11.5841814394        9.0933452071       11.1860443782
  H         6.0092234992       -1.1304525515       38.0417566681
  H         5.4006387816       -2.7698930422       38.1132871801
  H         6.1882579494       -2.2249033608       36.6700104223
  H         1.8305427003       -2.8453005466       18.1386820299
  H         3.4412437582       -2.0667047371       17.8052705997
  H         2.0044074922       -1.9278601969       16.6613220679
  H        18.2647545469        3.1710894198       21.9117504096
  H        17.4165600273        1.7440078837       21.4338173706
  H        18.9601602876        1.6914213306       22.2285500462
  C        12.5212862056        7.1406252915       10.2478012116
  N        12.1981292092        8.4859594725       10.1147664147
  O        11.2683891910       10.2456181520       11.3016662519
  S        13.3748221669        6.2505209867        9.0498836389
  C        12.5214449909        9.2281131444        8.9068802891
  H        12.7147374460       10.2142718151        9.2661426398
  H        13.5067947888        9.0233434003        8.3547835024
  C        11.4926914771        9.1532836588        7.7789412104
  H        10.4703611894        9.2476939385        8.0678441475
  H        11.6032412179        9.9161926672        7.1216902104
  H        11.5139881236        8.1420653847        7.4043658917
  H         4.1982579529        0.8313265060       12.1404676321
  C         3.8331216087        1.8516598002       12.2892009243
  H         4.4439591872        2.6621252201       12.3296418159
  C         2.8910517010        2.1960232248       11.1331022390
  C         3.0155154436        1.9593894506       13.5670803750
  C         3.7105319152        2.4827663648        9.8295231505
  H         2.4610585327        3.1363152214       11.3715583012
  H         2.0653998396        1.4452636502       11.0481851845
  H         2.1106386184        1.3149225997       13.3787717678
  H         2.6708618722        3.0205137627       13.5867162804
  H         3.6891914771        1.7938113446       14.3302258713
  C         4.5190303697        1.2873748262        9.2779662187
  H         3.0910362297        2.9664154660        9.0753542348
  H         4.2679013869        3.3664985013       10.2656747777
  C         5.3069486613        1.5184790946        8.0213766194
  H         3.7814123432        0.5737480042        9.0203130701
  H         5.1610763515        0.7518544676        9.8926305827
  C         6.6252088284        2.3965338599        8.0528902163
  H         4.7210877793        2.2210731700        7.4266060689
  H         5.5094342945        0.5811396596        7.4513897129
  C         7.7555731040        1.7810694016        8.8098624525
  H         6.8917518625        2.7101215911        7.1801301169
  H         6.3896734907        3.1594733111        8.7796049087
  C         9.0163277648        2.7044798483        9.1668504111
  H         8.0948961810        0.8354278940        8.3664366300
  H         7.3870891499        1.4718102250        9.7149623446
  C         8.5848521280        3.9809350447        9.8602643567
  C         9.4531531878        3.4359121836        7.9535693564
  C        10.1904984073        2.1306190579        9.9558382534
  C         8.8913698739        5.1310289849        9.0828897332
  C         8.0330353349        4.3774110536       11.0974398466
  C         9.3678023101        4.7316559384        7.8334372934
  C         9.8322730060        2.8238615438        6.8210251057
  H         9.8250526091        1.5589577922       10.9051480602
  H        10.7485226091        1.4146264208        9.4894029156
  C        11.2092982051        3.1279243954       10.5071996800
  S         8.5772573206        6.5723922418        9.8414376775
  C         7.9247248086        5.7253589539       11.1812266731
  H         7.6915405656        3.6903099784       11.8016858635
  C         9.8621941281        5.3529171363        6.7285474240
  H         9.9837012881        1.7994096979        6.7254701404
  C        10.2633851478        3.3719521069        5.5958393398
  H        10.7328633398        3.9794130333       10.8894257607
  H        11.8155854331        3.4216325348        9.6291271751
  C        12.2204485374        2.6009537017       11.5191000870
  C         7.5365281459        6.5264622498       12.4385780321
  C        10.3374603496        4.6628946070        5.5909066043
  H         9.9825149857        6.3495616769        6.7617399028
  C        10.7497763703        2.9489884585        4.3682450231
  H        13.3182102627        2.9157073238       11.1635273951
  H        12.5269526584        1.5904816557       11.3802712061
  C        11.8381383619        2.7407218579       12.9994830955
  C         7.5355063276        7.9385683089       12.5675020586
  C         7.0833795160        5.7980125253       13.5935820972
  C        10.7995074997        5.3150771462        4.3492024471
  C        11.0617720520        4.0452984944        3.5893581763
  S        10.9022874140        1.4267537507        3.6486117172
  H        11.5912091283        3.6736327991       13.2682569300
  H        10.9107265429        2.1922191430       13.1619079129
  C        12.7931330979        2.1278306325       13.9744214428
  N         7.8974980606        8.8331258770       11.5737188375
  C         7.3653720588        8.5480272747       13.7789825581
  C         6.7135969950        6.4545932534       14.7100961454
  H         6.8790994810        4.8103515888       13.4380010195
  C        12.0876913736        6.0873696259        4.6024429608
  C         9.7737694851        6.1121702769        3.5611467640
  C        11.5443360665        3.5629534763        2.3769743085
  C        11.4117520937        2.2468062874        2.1833202338
  H        13.7635230421        2.5658157933       13.8012526746
  H        12.8362114804        1.1339299444       13.6907388572
  C        12.2864321545        2.4153465438       15.4149692185
  S         8.1107474779       10.2742185669       12.1741989359
  N         7.7620147904        9.8580085400       13.7765975329
  C         7.0446713043        7.8169005526       14.9357331700
  H         6.2843223888        5.7184334620       15.5565303231
  H        11.8674131338        6.8824281218        5.3331393692
  H        12.3592196313        6.4232188337        3.4891098337
  C        13.2551188197        5.2265749644        5.1329850636
  H         9.1985319651        6.8361773545        4.1087617594
  H        10.1698028841        6.5443703043        2.7051727960
  C         8.6756061341        5.1825967741        3.0475971750
  H        11.9053810472        4.2328061373        1.6357685391
  C        11.6631286531        1.5297501153        0.9041551919
  H        12.3986464889        3.5369682754       15.6198302705
  H        11.2813805985        1.9296263232       15.4930572810
  C        13.2462554689        1.6122541513       16.3221044159
  C         6.9296219403        8.6352594694       16.1826100273
  H        12.9599227928        4.7416311315        6.0110472353
  H        13.3579243147        4.3860861090        4.4746400549
  C        14.5400137963        5.9781158516        5.2854337787
  H         8.4054087391        4.3922990512        3.7275728641
  H         8.9490125694        4.5473794152        2.2409138977
  C         7.3216697477        5.9153303270        2.7672326128
  C        11.7648075834        0.0897551232        0.7009126241
  C        11.9611350745        2.2724784726       -0.2812562375
  H        14.1862262956        1.8020924649       16.0293264091
  H        13.0649373193        0.6144747634       16.1653992318
  C        13.0560733030        2.0548248379       17.7571785161
  H         6.8930463317        9.8050293291       16.1056644504
  C         6.5751240841        8.3384722677       17.4726066746
  H        14.3111098978        6.9601407706        5.7378026372
  H        14.7450937696        6.0973923821        4.1638207705
  C        15.7315989362        5.2183151213        5.8598735576
  H         6.8931780425        6.2607997706        3.6220286941
  H         7.5796653594        6.8755308707        2.3214673812
  C         6.3897373557        5.0942334000        1.9553631881
  N        11.5076559778       -0.8136996778        1.7020766667
  C        12.0941948076       -0.4969699362       -0.4873935050
  C        12.1472829335        1.6735572350       -1.5568304143
  H        11.6040370654        3.2999506195       -0.3521127954
  H        13.6212741219        1.3631028121       18.4146668351
  H        12.0880804038        1.9307928371       18.1665535619
  H        13.2915330817        3.1488330880       17.9504221108
  S         6.1690349010        6.7142684162       18.0576183385
  C         6.3845432506        9.4146252223       18.3902052976
  H        15.5464159457        4.6903165551        6.8285852085
  H        16.1823907854        4.5973591797        5.0900295092
  C        16.9159206347        6.0771611363        6.2913347670
  H         6.2131547932        3.9349972371        2.3514746488
  H         6.8294811227        4.7316950761        0.9411471624
  C         4.9613511180        5.6681488780        1.6437488777
  S        11.8081951032       -2.2685128016        1.0901713069
  N        12.0833707862       -1.8515812521       -0.4134874080
  C        12.4487818689        0.2213120000       -1.6194972016
  H        12.3282632474        2.2808155809       -2.4646832565
  C         6.0106226970        7.4479750884       19.6497318283
  N         5.9936373871        8.8172353215       19.6167452389
  O         6.7025325339       10.6016099779       18.2245465921
  H        17.4542516980        6.4186819624        5.4146359307
  H        16.5025474312        7.0551245945        6.6543109232
  C        17.8320278379        5.4929282452        7.2719785126
  H         4.4821383055        4.9383616675        0.9630515681
  H         4.6304939959        5.6230127407        2.7026838335
  C         4.9796298852        7.1299146769        1.0065847169
  C        12.8145610609       -0.5153262836       -2.7717408628
  S         5.5825978485        6.5600016779       21.1148820753
  C         5.9218002993        9.6046885717       20.7766447713
  H        17.4675041369        5.4509540518        8.2911568777
  H        17.8826017347        4.3313772222        6.8692132100
  C        19.2501230799        6.1178139787        7.2812648542
  H         4.4581845263        7.1029200690        0.0930355439
  H         5.9599615189        7.4392311361        0.7464288664
  C         4.2637643450        7.9428914840        2.0818644895
  H        12.5531801637       -1.5545451894       -2.8146971252
  C        13.3260527267       -0.1450961221       -3.9958906559
  H         5.2002187972        9.0601720749       21.4029211042
  H         5.4813249058       10.5924073367       20.5396533922
  C         7.3003825280        9.7940858851       21.3719411623
  H        19.8129977704        5.9355332927        8.1048907739
  H        19.1363429226        7.1716885400        7.1641297719
  C        20.0368642676        5.6831973576        5.9536647983
  H         3.3484422601        7.4905819316        2.1729890308
  H         4.6094806600        7.8923987657        3.0273601737
  C         3.9775589235        9.3983908247        1.7514081163
  S        13.5797776508        1.5208697663       -4.4452278075
  C        13.4724120984       -1.1041826371       -5.0623583578
  H         7.1716728208       10.3384975654       22.3532936353
  H         7.8965069637       10.5528269369       20.7931803372
  H         7.7534098923        8.8872668123       21.7858089268
  H        20.6471609494        6.5892652017        5.6419599200
  H        20.6493813370        4.7727801718        6.1161563375
  H        19.3332549623        5.3713413555        5.1857171185
  H         3.5506888466       10.0296310905        2.5028867042
  H         4.8554525009        9.9447527591        1.4209069631
  H         3.3275599965        9.4402617371        0.8890962372
  C        13.9280352059        0.8366403180       -6.0191610492
  N        13.9801018948       -0.4505435947       -6.1430015171
  O        13.1483376901       -2.2652929907       -4.9477900134
  S        14.5605326763        1.7471677968       -7.3557750435
  C        14.2311727659       -1.2067559201       -7.3563746965
  H        14.6191886883       -2.2302307958       -7.2421871291
  H        15.1280483772       -0.9907441135       -7.9321080334
  C        12.8521292560       -1.3571662096       -8.1209701036
  H        12.0812023861       -1.0745636385       -7.3584484831
  H        12.8758584605       -2.3876149041       -8.4787732623
  H        12.9679821255       -0.8080006824       -9.1027932473
