352
 i =    93400, time =    46700.000, E =       100.1497735728
  H        12.5919818730        6.4337521526       32.2387116364
  C        11.8897071734        5.5862404563       32.5482041800
  H        12.5907070025        4.7470710406       32.4428800443
  C        10.7475766601        5.5676897534       31.4915232153
  C        11.2952322470        5.6344577179       33.9341465935
  C        11.2202406891        5.5648239422       30.0856323655
  H        10.2606978759        4.6109665298       31.5711348018
  H        10.0391499968        6.4260398827       31.6174196362
  H        11.8495151889        5.2140255300       34.7932092343
  H        11.0138277296        6.6999535346       34.2710720210
  H        10.3302188117        5.0630566825       33.9356146575
  C        10.0364056491        5.4117095170       29.1325810065
  H        11.8231514403        4.6483732916       29.9670212271
  H        11.8281380818        6.4922417812       29.8441824446
  C        10.4833611694        5.5662574818       27.6210304460
  H         9.5907856170        4.4467559917       29.2386023019
  H         9.3656628435        6.1847299852       29.5073312543
  C         9.3661412681        5.0946191367       26.7983037897
  H        11.4192027649        5.1382083378       27.2844468570
  H        10.5176961851        6.6279583881       27.3594385769
  C         8.1846320490        5.9801219395       26.4534747541
  H         9.8775424040        4.8057307275       25.8614420864
  H         9.0807772654        4.0841111826       27.1308554970
  C         6.9292762721        5.3095070248       25.6652917122
  H         7.6627941033        6.4530616617       27.3316749734
  H         8.5772836389        6.8489231979       25.8541127813
  C         6.6249022472        3.9390497403       26.2673450466
  C         7.3078682008        4.6901249670       24.3128290749
  C         5.7490627521        6.2678069529       25.4330377016
  C         6.7826210550        2.8758336340       25.4149765438
  C         6.2498516293        3.5381753434       27.5250294110
  C         7.2186285063        3.3404432193       24.1995466707
  C         7.7506357937        5.3111343565       23.1284150121
  H         6.0439263622        7.1979772026       25.0017138962
  H         5.4366954717        6.5956016248       26.4102923247
  C         4.5532219036        5.5921519266       24.7635225894
  S         6.4641106898        1.3457909723       26.1289463141
  C         6.1200758572        2.1527146026       27.6244740175
  H         6.0761093738        4.2714225440       28.3141095207
  C         7.5395277635        2.6726597564       23.0254768558
  H         7.7870649970        6.3492196870       23.2906319212
  C         8.0934913057        4.6765718144       21.9776678356
  H         4.8431221859        5.4528943649       23.7081127217
  H         4.4910535778        4.5479297865       25.0876939106
  C         3.2918897152        6.2941158897       24.9610467621
  C         5.8246354305        1.4467102029       28.9330846804
  C         8.0983041928        3.3246525814       21.8985178363
  H         7.3313384338        1.6120378288       22.9920875723
  C         8.6078019393        5.0978122199       20.7663735839
  H         2.5828616655        5.9415769903       24.2112605651
  H         3.6171638506        7.2698804228       24.6910324918
  C         2.6661357950        6.2593102543       26.3955089797
  C         5.8112754600        0.0684924671       29.2191259334
  C         5.5329003479        2.2636599886       30.1297495339
  C         8.5226563980        2.6291990888       20.6705524011
  C         8.7972316071        3.9505265945       19.9476008236
  S         8.9987182916        6.6095441077       20.1411425844
  H         1.8322860018        6.9706693806       26.3588699265
  H         3.4053511500        6.5158077050       27.1474305364
  C         2.0920213284        4.9132697484       26.9052881594
  N         6.1992222741       -0.8935325811       28.1947847518
  C         5.7077743466       -0.5156997518       30.5083746988
  C         5.1645638808        1.7320588981       31.3314656399
  H         5.4239778790        3.3326719145       29.9831764397
  C         7.5590052955        1.7504326806       19.8884938094
  C         9.8314191963        1.7899765444       21.0167758354
  C         9.1274256718        4.4162649283       18.6644419822
  C         9.3116965853        5.7785388755       18.6372062379
  H         1.6334242200        4.3542756536       26.0540883129
  H         2.9289848590        4.2503128638       27.1564555246
  C         1.1257819342        5.0152403999       28.0916854211
  S         6.1064533885       -2.3761544758       28.9107920090
  N         5.6532809500       -1.9332280777       30.4410702662
  C         5.4176526222        0.2633503921       31.6439560755
  H         4.8607674189        2.4880837096       32.0206319460
  H         7.4832372036        0.8965003389       20.5308137349
  H         7.9499368588        1.5236106755       18.8330419771
  C         6.2034438235        2.4673174456       19.5058662132
  H        10.1803436966        1.2249910339       20.1764205574
  H         9.6375000927        1.0935702571       21.8504676841
  C        11.0500217095        2.5916529867       21.5084488119
  H         9.0910420481        3.8022503138       17.8162933833
  C         9.8425338249        6.5278264933       17.4520171326
  H         0.3025159985        4.2997855888       28.0706390705
  H         0.6815245268        5.9699568202       28.0423106748
  C         1.9282792454        5.0016849171       29.3737716295
  C         5.1096144535       -0.2636314209       32.8847568465
  H         6.3957775987        3.4201663828       19.1120170551
  H         5.5617350427        2.4791814821       20.3943657464
  C         5.5870955191        1.9012623903       18.2680929751
  H        10.8245198638        2.8125264252       22.5864555150
  H        11.1697563979        3.5526277538       20.9556016366
  C        12.3081087161        1.6869159820       21.6824876757
  C        10.0028390701        7.9178214908       17.3035515611
  C        10.0721000522        5.7468030915       16.2755804392
  H         2.4245011777        4.0028625419       29.4947654317
  H         2.7191669799        5.7138124931       29.4123993412
  C         1.0632995610        5.1649111416       30.6429664823
  H         5.1982065902       -1.3693045516       32.8806508422
  C         4.6833039360        0.2112656052       34.0984315513
  H         5.4790730032        0.8332103732       18.2139044034
  H         6.1567033425        2.1079530033       17.3985357459
  C         4.1974829591        2.4401847618       17.9294412782
  H        12.0176665794        0.8604475446       22.3152162803
  H        12.5542195494        1.3370336296       20.6951383039
  C        13.3807272223        2.5046169028       22.3368179014
  N         9.8745317855        8.8204232459       18.3354164375
  C        10.4021781036        8.4695137999       16.1231409806
  C        10.3811156176        6.3145030287       15.0106997898
  H        10.1218298950        4.6959869555       16.3234369303
  H        -0.0523513610        5.3916434416       30.4360382168
  H         1.0787573154        4.2872543690       31.3692319726
  H         1.4658412762        5.8373389295       31.4173319400
  S         4.3385596666        1.8799507805       34.5298438074
  C         4.6197004759       -0.7204159871       35.2080991775
  H         3.7743784312        2.8075125489       18.8352556859
  H         4.1940599696        3.2442405207       17.1788209287
  C         3.3545944325        1.2799891662       17.3862569824
  H        12.9326899150        3.1059221633       23.1476881634
  H        13.8003857337        3.0630735805       21.5258951575
  C        14.6131243681        1.6442943078       22.8088204131
  S        10.0910119981       10.3243680197       17.8169948609
  N        10.5684803402        9.8563084220       16.2278725582
  C        10.5936832545        7.7803449062       14.8673995861
  H        10.5309011391        5.7251252898       14.1287386502
  C         4.1048013165        1.2837929371       36.0817092795
  N         4.0200555879       -0.0911757179       36.2632718562
  O         4.8279838902       -1.9159360853       35.0829781490
  H         3.8721526083        0.7062584758       16.5962689838
  H         2.5192239698        1.7616055592       16.9670002457
  C         2.9608415692        0.4039042136       18.5498044734
  H        14.4566058135        0.9208246329       23.5801354489
  H        15.2461085487        1.1158953365       22.0417859365
  C        15.6333057973        2.6516304353       23.4124721206
  C        10.8823562712        8.5284521196       13.6592482158
  S         3.2358375295        2.2211120193       37.3561769051
  C         3.6611190328       -0.7963974246       37.4808168585
  H         3.8157392599        0.2283030575       19.2512706618
  H         2.0814896774        0.8076252493       19.0477873377
  C         2.3968022876       -0.9038393804       17.9363764024
  H        15.9295144275        2.3304843426       24.4058779317
  H        15.1820848019        3.6240015676       23.4870050366
  C        16.7821883644        2.8082020284       22.4257088174
  H        10.9360532049        9.5950567242       13.7132539318
  C        11.4760271984        8.0241893150       12.5404721937
  H         2.7817259245       -0.3376131352       37.9531916575
  H         3.4089961108       -1.8724632132       37.2404880822
  C         4.8652438269       -0.7752495814       38.4842856632
  H         3.2854343663       -1.4114721130       17.4670388660
  H         1.6212550774       -0.7949288161       17.1530977363
  C         1.6751505773       -1.6685827865       19.0169336896
  H        16.5256074415        2.7674672746       21.3953140035
  H        17.0867019585        3.8157729820       22.5299643527
  C        17.8934110599        1.8433791567       22.6430201691
  S        11.9908037481        6.4291009081       12.1017048566
  C        11.6683199040        9.0232199112       11.4521762396
  H         4.8488704396        0.1758960578       39.0042814407
  H         4.7726983838       -1.6279629500       39.1501617651
  H         5.9113943393       -0.8792644980       38.0188111035
  H         2.4294224983       -1.9067975763       19.8385207124
  H         1.1524517121       -2.6007876741       18.7214027461
  H         0.8209378921       -1.0554067087       19.3270968875
  H        18.8199441691        2.3181466343       22.4215761500
  H        17.9490172009        1.1105730840       21.8791707067
  H        17.8717267279        1.3953589279       23.6137269384
  C        12.2485256296        7.1205294986       10.5072603678
  N        12.1355726702        8.4880857388       10.3493365266
  O        11.1702916662       10.1757138832       11.5574539619
  S        12.7193130208        6.0983833638        9.1695704015
  C        12.2141151050        9.1824923683        9.0770430023
  H        12.6591198193       10.1661078371        9.2853499867
  H        12.8111832829        8.7143095942        8.3333287167
  C        10.7376912768        9.2727734186        8.5330933322
  H        10.7074511313        9.4990434937        7.4417880894
  H        10.2054144067        8.3256030726        8.6808767882
  H        10.2091173838       10.0719211190        9.0229876599
  H         4.3348027520        1.2590103722       12.0882481261
  C         3.6744753600        2.1429036689       12.1162342047
  H         4.3017359885        3.0457225924       12.0972930818
  C         2.8042410581        2.0830717673       10.8459790096
  C         2.8516338206        2.1461634030       13.4377365728
  C         3.5876935316        2.3618381168        9.6306814696
  H         1.8642843054        2.7279623486       10.9194536644
  H         2.3501978194        1.1608772247       10.7585114591
  H         2.1465904985        2.9634474077       13.3805621057
  H         3.4887850756        2.3193977796       14.2937282071
  H         2.2561011636        1.2864341414       13.6116933815
  C         4.5531979222        1.2151050235        9.3197770882
  H         2.8717410940        2.4964731281        8.8579903352
  H         4.1879333692        3.3416325109        9.7277288168
  C         5.4171495708        1.4272531506        8.0821666157
  H         3.8853844084        0.4081166232        9.1028891626
  H         5.2674232228        0.8227424690       10.0648550039
  C         6.6149484222        2.3252314786        8.4317580149
  H         4.7763351262        1.8636624635        7.2772552643
  H         5.8835752681        0.5223395664        7.6985965761
  C         7.8509186576        1.6258366862        9.0267626266
  H         6.9472387035        2.8371725839        7.5117298233
  H         6.2230841330        3.1153919086        9.0278868190
  C         9.0303508491        2.5379174862        9.3410679305
  H         8.1332686463        0.8332097072        8.3653808454
  H         7.6159242139        1.1066876202        9.9406057202
  C         8.6897063726        3.9316798426       10.0010955928
  C         9.4739324671        3.1934844377        8.0800397315
  C        10.3198345919        1.8235325986       10.0254317711
  C         8.9394773405        5.0130315587        9.1624924436
  C         8.1813407146        4.3959539710       11.2263694117
  C         9.4755467406        4.5632817830        7.9678345225
  C        10.0434377010        2.6864089454        6.9103179520
  H         9.9758974264        1.1379183013       10.8279325925
  H        10.9056731937        1.3021147569        9.2563942363
  C        11.2035379831        2.8635948430       10.7426841351
  S         8.6511771757        6.5446390046        9.7913759528
  C         8.0754688287        5.7412694651       11.2293049802
  H         7.9973853372        3.7233755522       11.9571758875
  C         9.9235341616        5.2898241736        6.8754494721
  H        10.1123680789        1.6527316497        6.8318982040
  C        10.4379046576        3.3814674720        5.7689351761
  H        10.8506765410        3.3687152555       11.6152740568
  H        11.4464348805        3.5735103194        9.9452620694
  C        12.5952934348        2.3885214491       11.1500291412
  C         7.6308383385        6.4991434800       12.4298951655
  C        10.4095809522        4.7245866430        5.7237663080
  H        10.1017900377        6.3448983288        7.0010635199
  C        10.9325824182        2.9621949232        4.5335780824
  H        13.4346169983        2.7910300977       10.5515677361
  H        12.5844076431        1.2975919337       11.0974161128
  C        12.8932389855        2.4907602342       12.6398168402
  C         7.6148492048        7.8888834749       12.6582664507
  C         7.2435582340        5.6527410107       13.5679805691
  C        10.9443957964        5.4024745015        4.4947625823
  C        11.1890462456        4.0798035097        3.7427602739
  S        11.1422723670        1.4945244612        3.5853812081
  H        13.9029571895        2.1659815352       12.9577278401
  H        12.9895050431        3.5234289241       12.8755799421
  C        11.9432711367        1.6201192323       13.4249307350
  N         8.0791344026        8.8237517687       11.7631481180
  C         7.3621185542        8.4545557705       13.8692859780
  C         6.9531979734        6.2243498886       14.8347117627
  H         7.1017749103        4.5629233720       13.5366202585
  C        12.1877884625        6.1777161560        4.8941247150
  C         9.9730887616        6.2716802200        3.6738344089
  C        11.6646598174        3.7424674007        2.4193714265
  C        11.7143732815        2.4160389591        2.2294600371
  H        12.3839534949        0.6008596190       13.3472287458
  H        10.9511489309        1.6283467012       13.0049801916
  C        11.9468128085        1.9489737290       14.9240640036
  S         7.9516894380       10.2689610627       12.4463345902
  N         7.4145640767        9.8581976465       13.8651293841
  C         7.0399749862        7.6925566873       15.0034347778
  H         6.6768433935        5.4937184752       15.5670575479
  H        11.8792135509        6.9204897590        5.6826982242
  H        12.4921643999        6.7543745743        4.0598979183
  C        13.3278525836        5.2301691343        5.4420504955
  H         9.6512579823        7.1084728533        4.2680118914
  H        10.5946582722        6.6829392175        2.7959259376
  C         8.7650376681        5.6053543942        3.0721665608
  H        11.7004934321        4.5271604733        1.6335506148
  C        12.0102771464        1.6982596136        0.9455328406
  H        11.5993996679        2.9875992129       15.0444810664
  H        11.1996656971        1.3037189773       15.3150149126
  C        13.3714663576        1.7828479918       15.5768788174
  C         6.7990550999        8.3708631516       16.2323397237
  H        13.0085189918        4.7032879807        6.3405863855
  H        13.4341069926        4.4573942456        4.7322990073
  C        14.5634082891        6.0943440835        5.8320562123
  H         8.3324002548        4.8455693132        3.7687784557
  H         9.1373003327        4.9759355569        2.1858174425
  C         7.7110087143        6.5945730453        2.7411081463
  C        11.9953819105        0.2904289058        0.7478262805
  C        12.0750880727        2.4620212665       -0.3273908878
  H        14.0751542325        2.3577106818       15.0313246203
  H        13.6899678948        0.7204581405       15.5124555456
  C        13.3879279568        2.1606687791       17.0488142008
  H         7.0794829018        9.3901112905       16.1883540370
  C         6.4261469512        7.9668855283       17.4879228626
  H        14.3485792739        6.9205357713        6.5316070161
  H        15.0015708161        6.5429560741        4.9658794449
  C        15.7463500043        5.2384085102        6.3874956810
  H         7.4029293651        7.1355911000        3.5642371397
  H         8.1440634613        7.2837431292        2.0325847416
  C         6.5195891188        5.9767990679        2.0147801678
  N        11.7447861780       -0.6516344211        1.7397753480
  C        12.3489973954       -0.3189919785       -0.4595046027
  C        12.3112540420        1.8422429478       -1.5524240337
  H        12.1072688541        3.5123268151       -0.2819615978
  H        13.1922086167        1.3483878110       17.7127696764
  H        12.5752474974        2.8663765978       17.1497757772
  H        14.3896854348        2.6292534942       17.2731574501
  S         6.0129323192        6.2910419732       17.9089930903
  C         6.4868581524        8.9908752291       18.5544988754
  H        15.4328442834        4.7243393061        7.3048710141
  H        16.1066943160        4.4288288084        5.7552301735
  C        16.9196764602        6.1695695343        6.6068666468
  H         6.3632275600        5.0184720136        2.3277382235
  H         6.6873031308        5.8613509943        0.9559413221
  C         5.2285161383        6.7978072522        2.1650133617
  S        12.0840470388       -2.1464021546        1.2035054888
  N        12.4118305704       -1.7055773065       -0.3264931767
  C        12.4985203033        0.3912418336       -1.6485888465
  H        12.3711306334        2.4849970693       -2.3985657226
  C         5.9499804436        6.9899729208       19.5428226150
  N         6.1434457274        8.3634005208       19.6761291365
  O         6.7815107990       10.1728379981       18.4321696056
  H        17.3506603995        6.3521814121        5.6116656001
  H        16.6478211155        7.0867948715        7.0788490081
  C        17.9456842418        5.4647775903        7.5458828772
  H         4.3414269117        6.1847534360        1.9445229250
  H         5.1203051055        7.2086722492        3.1798387542
  C         5.2930021247        8.0346941154        1.1831396450
  C        12.7832651628       -0.3948755157       -2.7973179555
  S         5.1699549796        6.2070968270       20.8791458854
  C         6.1342759205        9.1848261999       20.9209602020
  H        17.7037167451        5.6679549546        8.5829300889
  H        18.1263999131        4.3647344307        7.5446755984
  C        19.2702788137        6.2008384252        7.2671707529
  H         5.3238236063        7.7289688414        0.1913188862
  H         6.2148731655        8.5840100766        1.3364939815
  C         4.0321814631        8.9923561484        1.2197728820
  H        12.5757913905       -1.4314881225       -2.7696741766
  C        13.2870428979       -0.0834945176       -4.0199176133
  H         5.4476518080        8.6849201478       21.5900503452
  H         5.7145962106       10.1143683749       20.7719651864
  C         7.5110077420        9.3636611790       21.4724226801
  H        19.8950800802        6.0846476746        8.1828055354
  H        19.0747532674        7.1952214612        6.8942611537
  C        20.0014671408        5.4145577304        6.1308987020
  H         4.1972206323        9.8313728648        0.5383214277
  H         3.1913230515        8.4384094229        0.8690633854
  C         3.8313512974        9.6427832028        2.5303648934
  S        14.0194111824        1.3267465730       -4.5679419780
  C        13.5496234527       -1.1457353770       -4.9857013230
  H         7.8988928735        8.4460166714       21.9060908988
  H         7.3257238666       10.0404939452       22.2871579983
  H         8.2348406679        9.7789678877       20.7131631675
  H        20.2597006428        4.3689088980        6.2726668486
  H        19.5514016567        5.5415811270        5.1610772676
  H        21.0043893358        5.7678363074        6.0139769130
  H         3.3728974619        8.9721161862        3.2419552252
  H         4.7230796501       10.0381360641        3.0087137486
  H         3.0978979478       10.4410319543        2.5015579050
  C        14.4795982287        0.5665882118       -6.0461104978
  N        14.0976333891       -0.7174438752       -6.0970668014
  O        13.1450378580       -2.2826402965       -4.7974228766
  S        14.8905589518        1.4223934947       -7.5427112412
  C        13.9651245612       -1.3599942524       -7.3961033981
  H        14.2388754166       -2.4341447813       -7.2649290383
  H        14.8133216428       -1.0097038034       -7.9389312811
  C        12.7323281830       -0.9583692121       -8.1535384131
  H        11.7978452502       -1.3661594860       -7.6135330042
  H        12.7793496125       -1.5082390167       -9.0809747673
  H        12.5784387066        0.1305827262       -8.3256199015
