352
 i =    41100, time =    20550.000, E =        99.8643298621
  H        10.7526294838        4.4513318660       31.6544097335
  C        10.3976325480        5.4602795024       32.0384717276
  H         9.3833256093        5.4941299636       31.7939632871
  C        10.9570679413        6.6308787567       31.2323306404
  C        10.7494321665        5.6308126909       33.5677548962
  C        11.2984520320        6.3024367609       29.7585294837
  H        10.4762372628        7.5948398346       31.2785039677
  H        11.8550625627        6.8772625218       31.8056767302
  H         9.8545678995        6.0223675595       34.0764423816
  H        10.7990769144        4.6536634037       34.0028004307
  H        11.6673510133        6.1860555524       33.7928265066
  C        10.0303828873        6.1050842210       28.8975681719
  H        11.8920400973        5.3782991092       29.6815066749
  H        11.8712971716        7.0895360448       29.2927730552
  C        10.4708198115        5.8146223026       27.4033308058
  H         9.5068161602        5.2600205116       29.3990822092
  H         9.3517000219        6.9466037556       28.9161197900
  C         9.4097104336        4.9525683458       26.7946904487
  H        11.3770114692        5.2043437512       27.5441782386
  H        10.8226382161        6.7154879655       26.9630208290
  C         8.3130243191        5.8272416451       26.2142677235
  H         9.6366883563        4.4937848432       25.8585576744
  H         9.1441915878        4.2427655585       27.5240709706
  C         7.1901047223        5.1219847107       25.3942280359
  H         7.8873573101        6.3643255870       27.1115698361
  H         8.6966444865        6.4932768597       25.3644697143
  C         6.8108451809        3.7894443356       26.1199183098
  C         7.6481678250        4.3688298232       24.1647447218
  C         6.0094917863        6.1399847094       24.9909379141
  C         6.8329080371        2.7191540136       25.2587617709
  C         6.1553991041        3.4384129205       27.3301072051
  C         7.4998512771        3.0596647926       24.0773622094
  C         8.1775459366        4.9497166492       22.9943778533
  H         6.3211594151        6.7966853810       24.1999250174
  H         5.8683646163        6.5536073279       26.0495200402
  C         4.7694842658        5.3933679968       24.5513473161
  S         6.2687917484        1.2418541741       25.9440930379
  C         5.9748249353        2.1193320960       27.4276172589
  H         5.9580840272        4.1851973050       28.0691586713
  C         7.9199924986        2.4298941519       22.9298689910
  H         8.1704266864        5.9938249512       22.9721889613
  C         8.4795842548        4.3240226471       21.8367370301
  H         4.8354674726        4.9520573209       23.5638974506
  H         4.5369326338        4.5384638698       25.1938606965
  C         3.4867261135        6.1799812258       24.4660751544
  C         5.5515935792        1.4253012487       28.6344004471
  C         8.3767108094        2.9883263940       21.7384676819
  H         7.8651616157        1.3473288997       23.0155123392
  C         8.8651943172        4.7520521412       20.5587723842
  H         2.6807794338        5.5421542056       24.0322979376
  H         3.6415399283        7.1052384288       23.8376797250
  C         2.9111574333        6.5537799886       25.8182354023
  C         5.7562000196        0.0692824594       28.9340658234
  C         5.0289965614        2.2479869500       29.7469046065
  C         8.7148852891        2.3016015786       20.4202008319
  C         9.0468126638        3.6409069813       19.7721999360
  S         9.1718835355        6.1890408648       19.8510114486
  H         2.0471499549        7.2439617740       25.6610697552
  H         3.5803516756        7.0845977148       26.4725468458
  C         2.3731228738        5.3763477896       26.6549448017
  N         6.3410601514       -0.9354371033       28.1178478333
  C         5.4710977868       -0.4786295055       30.1570647692
  C         4.6710970685        1.7263932593       30.9873795217
  H         4.7797970672        3.2264556165       29.6401267825
  C         7.7430643781        1.5029150888       19.5322483092
  C        10.0182693077        1.5106599234       20.6358986495
  C         9.3952984626        4.0540115470       18.4554114469
  C         9.4775112669        5.4135265472       18.3691136752
  H         1.9489325600        4.6651936925       26.0079508059
  H         3.2601246109        4.9006101716       27.0663868102
  C         1.4284415678        5.6791068700       27.7775310652
  S         6.2304732368       -2.4393190299       28.8193723516
  N         5.5769181212       -1.8752024175       30.1768681812
  C         5.0743383923        0.2745360714       31.2933489297
  H         4.3345554235        2.4178160418       31.7970965942
  H         7.5567769330        0.5438058994       19.9380505715
  H         8.0530421634        1.2853628981       18.5113175421
  C         6.3894524690        2.1672109002       19.5217844506
  H        10.1980700637        1.0297658993       19.6823599466
  H         9.8411376992        0.8046586319       21.4172929988
  C        11.3427748528        2.3617013904       21.0139434587
  H         9.4228319285        3.3642124399       17.7473806311
  C         9.8336155141        6.2133676034       17.1627317568
  H         0.4110069578        5.3393332387       27.6349892552
  H         1.2922097841        6.6964344301       27.8451938201
  C         1.9896299273        5.3372628055       29.1466286735
  C         5.0607949999       -0.3665547725       32.5430668273
  H         6.5543814006        3.2360668982       19.5913068133
  H         5.7470103979        1.8596124944       20.3752674332
  C         5.5983476089        1.9659489397       18.2791929587
  H        11.1523620900        3.1366170379       21.7017769860
  H        11.7096728231        2.8908318523       20.1031465407
  C        12.4512604139        1.6401443128       21.7667025877
  C         9.9640393747        7.5919164367       17.0666404469
  C        10.0063603159        5.5079073928       15.8737940615
  H         2.2265110574        4.2482412742       29.2427827439
  H         2.9530463481        5.8202794067       29.1937133881
  C         1.1447858508        5.6842079555       30.3329753287
  H         5.5499188927       -1.3573570004       32.5187348000
  C         4.7172793834        0.0112840696       33.7837656068
  H         5.8675488952        1.0989543050       17.6944309574
  H         5.8305734490        2.7948628211       17.6810187876
  C         4.0987176066        1.9490671972       18.5513161619
  H        12.0435119979        1.2113487053       22.6420195505
  H        12.7885727008        0.7836249447       21.1620743124
  C        13.6121153661        2.5172832073       22.1355196897
  N         9.8338185827        8.4753093506       18.1158152314
  C        10.3062418789        8.3129039172       15.9185603510
  C        10.2782735053        6.2450478907       14.7182238803
  H         9.9343412480        4.4276774280       15.8031474922
  H         1.7015080960        5.5370637341       31.2396514459
  H         0.7119442928        6.7213651068       30.2714835881
  H         0.2216196577        5.0539222367       30.3043155311
  S         4.3392926548        1.6423460991       34.2296488644
  C         4.6173540134       -1.0115104381       34.8600501941
  H         3.8907487969        2.7591911398       19.3304804191
  H         3.4736798381        2.4190424937       17.7957234276
  C         3.4482565924        0.6222268991       18.9949914710
  H        13.3214143281        3.5623252869       22.4969456181
  H        14.0322715955        2.7440001230       21.1628741756
  C        14.6685679824        1.8305519124       22.9740626047
  S         9.9096175109       10.0166503970       17.5874144123
  N        10.3954160319        9.7143608628       16.0992709643
  C        10.4798443612        7.7385715555       14.6493018597
  H        10.3329314853        5.7036004102       13.8289696577
  C         4.1935411847        0.9997640288       35.8757845574
  N         4.3394448033       -0.3108859604       36.0037631023
  O         4.7964732610       -2.1973481602       34.7697156896
  H         2.4393203870        0.8155152263       19.2754057081
  H         4.0283614041        0.1656876344       19.7974742939
  C         3.4370842442       -0.2439187780       17.8275860131
  H        14.1760922885        1.5076690892       23.8945083331
  H        15.1300991704        0.9993960522       22.4014765209
  C        15.7681116722        2.7093003863       23.5092450269
  C        10.8384942886        8.5395098285       13.5037534140
  S         3.8293182594        1.8803752001       37.3905315884
  C         4.0955611671       -0.9835203219       37.2679266579
  H         2.9126064688        0.3239645076       17.0728392519
  H         4.3892981798       -0.5152167501       17.4923031488
  C         2.7234498560       -1.5517098312       18.1511207117
  H        15.5896404992        2.9564452893       24.5222521078
  H        15.6487309454        3.6407761795       22.9364129249
  C        17.1346964819        2.1342116204       23.5542253886
  H        10.7030490202        9.5868489802       13.6190122566
  C        11.2906785737        8.1844583644       12.2682165409
  H         3.3981800029       -0.5326524557       38.0032577567
  H         3.7795903688       -2.0318777792       37.0629385007
  C         5.4373879155       -1.1581759712       37.9186258801
  H         1.6868378647       -1.4053073525       18.4142977458
  H         3.1119417923       -1.9547147803       19.1246074531
  C         2.7168779193       -2.4730805417       16.9093321410
  H        17.8334519752        2.7523059540       24.0568989927
  H        17.2379462262        1.1884039018       24.1391969021
  C        17.6356528571        1.9430405674       22.0970468375
  S        11.4303370138        6.5067587754       11.6240119665
  C        11.3187408503        9.1950778530       11.1933876142
  H         6.0657990276       -0.3274703199       37.7503166359
  H         5.3100328142       -1.2124795539       38.9871087568
  H         5.7405657536       -2.1309547065       37.6183959200
  H         2.0089866991       -3.3388575849       17.0710970496
  H         3.8393195739       -2.7171443014       16.6694575978
  H         2.3564366068       -1.9711886942       16.0272048565
  H        18.7330579573        1.8659570693       22.1694457973
  H        17.2918418158        2.7270563036       21.4503337681
  H        17.2592668729        0.9615885560       21.6431425415
  C        11.8192470176        7.2393189209       10.0801118553
  N        11.6722852493        8.6059763658       10.0507288735
  O        11.2002335892       10.3910214956       11.4036380994
  S        12.4008255252        6.3818063853        8.6332680332
  C        11.6949286989        9.3074054655        8.7921183034
  H        11.9381978570       10.3706977701        8.9551653070
  H        12.5394736253        9.0173996039        8.1219687654
  C        10.2953131079        9.1610821705        8.1320438310
  H         9.8659893448       10.2388790875        8.0573606883
  H        10.2703988757        8.7675649819        7.0803485539
  H         9.6623261238        8.5189405051        8.7001082391
  H         5.6644866842        2.1367683929       12.3960346079
  C         4.8168864958        2.5735896293       12.8464564122
  H         4.9843752184        3.6393541033       12.7812335898
  C         3.7460709830        2.2922920045       11.7829801914
  C         4.5387957823        2.2541120248       14.2832120325
  C         4.2533024124        2.3207373697       10.3728988381
  H         2.9725834046        3.0489374738       11.8242118268
  H         3.4833384050        1.2890052942       11.9670595802
  H         3.5316614962        2.5187799945       14.4567173397
  H         5.2024526896        2.9694339812       14.7409826499
  H         4.7029601582        1.2694908460       14.6192808006
  C         4.9360702146        1.0461696676        9.8874767360
  H         3.2719378719        2.4944905385        9.8663330705
  H         4.8510163665        3.1561031615       10.1655343321
  C         5.5741878897        1.1524174576        8.4656043901
  H         4.2134016280        0.2313112761        9.9143462219
  H         5.7428636272        0.7429805124       10.5682674370
  C         6.7276774370        2.1468516453        8.4096062294
  H         4.9315379186        1.2768378985        7.6119195675
  H         6.0169880776        0.2238968165        8.1147206027
  C         7.9641778702        1.5591980972        9.0773582880
  H         6.8573725487        2.3484146365        7.3231007071
  H         6.4856603637        3.1209319388        8.8261178169
  C         9.1373538985        2.5484857221        9.2215120087
  H         8.2247109170        0.5228028455        8.6844993964
  H         7.6842031454        1.2708850705       10.0672395039
  C         8.7286922796        3.9025044442        9.9322790989
  C         9.3717930603        3.2637851931        7.9462236510
  C        10.4752710755        1.9912311815        9.7812692851
  C         8.7901192550        4.9908966863        9.0842615958
  C         8.2724368768        4.2820720470       11.2405146643
  C         9.2208936205        4.6037575045        7.8338019994
  C         9.8890905479        2.6549653265        6.7763821521
  H        10.1310780069        1.3859667580       10.6053871486
  H        10.8310437569        1.2920048125        9.0084052703
  C        11.4136687518        3.1033998451       10.2503475457
  S         8.3207835549        6.4457083433        9.8446764096
  C         8.0663227876        5.6157553878       11.3433294567
  H         8.1715372228        3.5093887289       12.0336106825
  C         9.5087749585        5.2007414574        6.6498700677
  H        10.0675508630        1.5927662107        6.8924851604
  C        10.1682171696        3.3560041683        5.6210639056
  H        10.9895854002        3.9248119141       10.8128746394
  H        11.9687477388        3.5785842964        9.4569147292
  C        12.4966150439        2.6086886218       11.2546052993
  C         7.5354249189        6.2902152765       12.5137879352
  C         9.9973482062        4.6497832781        5.4797691838
  H         9.3838655764        6.2914150701        6.7077881704
  C        10.5845231749        3.0333242525        4.3676925583
  H        13.4775985500        3.0532154878       11.0023484155
  H        12.7408639217        1.6100086638       11.0324316731
  C        12.0681177275        2.7875013466       12.6369013665
  C         7.5423046483        7.6902117719       12.7539380690
  C         7.1629517105        5.4117586327       13.7230160565
  C        10.3199040562        5.4076151570        4.2601838020
  C        10.6800996210        4.0942375337        3.5118722662
  S        10.9821527439        1.5377457955        3.6834476547
  H        12.2746013286        3.7636735402       13.0237481733
  H        11.0433105911        2.7360683317       12.7172122012
  C        12.7019029602        1.9096063981       13.6767729900
  N         7.8463835784        8.6709332102       11.8761681404
  C         7.2594449691        8.2391659347       13.9630735977
  C         6.8900977956        5.9650019770       14.9434335338
  H         7.1190961051        4.2955985591       13.5981238409
  C        11.5791964617        6.3216183795        4.4652322143
  C         9.1889181974        6.1698468518        3.5499503616
  C        11.1183280317        3.7613872387        2.2573538165
  C        11.3304833475        2.3694797668        2.1348025589
  H        13.6185833142        1.4310773127       13.3110825741
  H        12.1220637822        0.9364482034       13.7151132820
  C        12.8730509462        2.5670258657       15.0074114948
  S         7.8382905835       10.1400876476       12.6492713385
  N         7.6319128626        9.5606261121       14.1134084879
  C         6.9253604156        7.4525345506       15.0605856779
  H         6.5813603941        5.3324012481       15.6935832197
  H        11.2549858588        7.0164578999        5.2697184763
  H        11.8576167775        7.0099730786        3.6120176079
  C        12.8434155285        5.6141365602        4.9831246769
  H         8.7520103564        6.6677526956        4.4150175007
  H         9.5406467355        6.9728804901        2.8780430176
  C         8.0212540153        5.3295537543        2.8453127485
  H        11.2387260203        4.5649792089        1.5881124254
  C        11.7854377203        1.5395700740        0.9230861380
  H        13.8805619084        3.0561764813       15.0544323713
  H        12.1315664560        3.3681120658       15.1498491192
  C        12.8919233284        1.5460183712       16.1452202870
  C         6.7400068602        8.1350009265       16.3233336261
  H        12.6337286872        5.2365247018        6.0008929776
  H        13.0540762952        4.7445519770        4.3826830919
  C        13.9217599308        6.5689823236        5.0836891419
  H         7.7301471429        4.3937100519        3.3617702876
  H         8.3397922625        4.9863333649        1.8258293678
  C         6.7611295627        6.2854627908        2.7898355557
  C        11.8493074769        0.1239781497        0.8417748267
  C        12.0320973150        2.2892394178       -0.3487694206
  H        13.6637705127        0.8394953531       15.8685278899
  H        11.8892960895        1.1116080315       16.1810083715
  C        13.1133722206        2.2356420006       17.4265962714
  H         6.6077708212        9.2293900131       16.1826637954
  C         6.4649927477        7.7573561064       17.6364860431
  H        13.7325992129        7.0738216361        6.0618468983
  H        13.7748867432        7.2621990884        4.3011654985
  C        15.3208042062        5.9326658089        5.1232948936
  H         6.6734492952        6.7980406983        3.7387449095
  H         6.7902200163        6.9834465736        1.9949755655
  C         5.5850714360        5.4647732517        2.5223725137
  N        11.6305360724       -0.7919053164        1.8324413946
  C        11.9742696176       -0.5675260762       -0.3826944872
  C        12.1213834309        1.6077525508       -1.5248340120
  H        11.9979281490        3.3647863766       -0.2043034918
  H        12.4430987130        1.7141483696       18.0862768613
  H        12.8843067702        3.2720454739       17.4191394155
  H        14.1665233206        2.1699858072       17.6102208796
  S         6.1693912724        6.1853327959       18.1960932854
  C         6.5006413640        8.8537586320       18.5958151380
  H        15.2481141922        5.0330114851        4.4802040704
  H        16.0809559866        6.6449324350        4.7049675356
  C        15.7149061977        5.4363209746        6.5038140449
  H         5.3386821687        4.8012398428        3.3735454657
  H         5.8793694619        4.9137744061        1.6108637421
  C         4.3489043935        6.2667734815        2.2114326139
  S        11.8580073096       -2.3484781586        1.2949847693
  N        12.2403662453       -1.9774140590       -0.2521365343
  C        12.1654187330        0.1078931481       -1.6496192542
  H        12.3512391677        2.2524011712       -2.3429253526
  C         6.0843748702        6.9438331498       19.7492774121
  N         6.2645555685        8.2907457209       19.7775176902
  O         6.7850448894       10.0758011661       18.4377803760
  H        15.4669578153        6.2104772236        7.2421780276
  H        14.9812435528        4.7124141929        6.7469741918
  C        17.1724731942        4.9129925777        6.4611785881
  H         4.3125856756        6.3989780509        1.1692965534
  H         3.5628086488        5.5753688167        2.4404929308
  C         3.9673530089        7.5378868256        2.9115960050
  C        12.4450749791       -0.5723698495       -2.9168328928
  S         5.8073274648        6.1914859784       21.2868237163
  C         6.3537501281        9.1691304686       20.9084514420
  H        17.2977681105        4.1649090542        7.2238297087
  H        17.4682858005        4.4910997127        5.5464148302
  C        18.2423580662        5.9364318540        6.7871617045
  H         4.4905525251        7.6320220159        3.8139604782
  H         2.8748578778        7.6040002964        2.9913729124
  C         4.3910237640        8.8660649966        2.2768725724
  H        12.3030760634       -1.6209098932       -2.8636484997
  C        13.0026573356       -0.2139039271       -4.1390135429
  H         5.8190382990        8.8515509192       21.7541841233
  H         5.8732265205       10.1765530659       20.8071672481
  C         7.8084054763        9.3285871930       21.2885908638
  H        17.8494993104        6.3827098723        7.6950764476
  H        18.3244274548        6.5512563350        5.9312434223
  C        19.6038693295        5.3962191361        7.1810651158
  H         4.6020104587        9.7060800975        2.9638166794
  H         5.2632097565        8.7753447424        1.6601656246
  C         3.3628184117        9.2477352697        1.2906767170
  S        13.6077407385        1.3519209309       -4.5577781154
  C        13.2338132467       -1.2752921668       -5.1422899829
  H         8.0981440123        8.6000212353       22.0705421864
  H         8.0655707690       10.3708104526       21.5152763301
  H         8.3750927195        9.0995828234       20.4332553587
  H        19.8276987925        4.4670665732        6.5745597413
  H        20.3112211177        6.1216095201        6.8389303265
  H        19.6511811735        5.1092051362        8.2529328621
  H         3.8103322607        9.9860391695        0.5869500732
  H         2.9268895810        8.4488781295        0.6426681820
  H         2.5305624750        9.8831513176        1.6824596526
  C        13.9440642749        0.6665743441       -6.1218774966
  N        13.7969413926       -0.6804415709       -6.1596145492
  O        13.0087237469       -2.5111049883       -5.0755014641
  S        14.7719162651        1.4716373855       -7.4062939590
  C        14.1370128597       -1.4244161696       -7.3050964162
  H        14.2852901879       -2.4698756572       -7.0027102611
  H        15.0303376798       -1.1022914782       -7.8220198549
  C        12.9271153750       -1.3007683145       -8.2024864038
  H        12.0243847093       -1.0500803671       -7.7330089315
  H        12.7887391004       -2.2494913629       -8.7213262390
  H        13.0802024565       -0.6278787494       -9.0065016977
