352
 i =   107200, time =    53600.000, E =        99.8078572638
  H        10.0943823886        4.6722389736       31.7183500833
  C        10.3908360700        5.5964358204       32.1216117094
  H         9.4609868316        6.1582446737       31.9522080610
  C        11.5262603079        6.3142863088       31.3998734538
  C        10.6731361125        5.3860878492       33.6684604566
  C        11.1678394057        6.6797692036       29.8972540167
  H        11.8464564118        7.1884702274       31.9551249009
  H        12.2591654338        5.5445045285       31.2721417161
  H         9.8825223098        5.7470523584       34.2824888569
  H        10.7755790835        4.3210978208       33.9149381095
  H        11.5652015616        5.8755040803       34.0470625373
  C        10.6672473712        5.4802185617       29.0335745473
  H        12.1305159414        7.0192600275       29.4743536100
  H        10.5493359729        7.5348516651       29.9428486932
  C        10.7814334827        5.8223281234       27.5044196296
  H        11.2209974222        4.6465631512       29.1939348680
  H         9.6188487289        5.2672390784       29.4687173106
  C         9.8368392100        5.1492380241       26.5018342122
  H        11.8107089904        5.4116554611       27.2479581270
  H        10.8723458176        6.8781001379       27.3944186356
  C         8.6400756884        6.0656603341       26.2629688950
  H        10.3993522335        4.9041361707       25.6095509267
  H         9.4952895069        4.1427112073       26.8616584531
  C         7.4398519530        5.3852620953       25.5483769925
  H         8.2226071184        6.6330699609       27.0680786977
  H         8.8940907894        6.8194924059       25.5884361601
  C         6.9780132208        4.1065368189       26.1830896010
  C         7.7526483476        4.7102409942       24.2245374378
  C         6.3041407341        6.4019963798       25.4548071934
  C         7.1071937624        3.0233268816       25.3725216144
  C         6.5174891522        3.7132187075       27.4411998063
  C         7.5747941118        3.3627554416       24.1031715670
  C         8.2528150178        5.3245780667       23.0510107711
  H         6.5790797482        7.4328169805       25.2493020671
  H         5.8193622500        6.3468247238       26.4215237099
  C         5.2178992569        5.9605304261       24.5024000701
  S         6.4754823588        1.5306921462       26.0153382275
  C         6.1627724413        2.3630969131       27.5060032719
  H         6.5198386096        4.4116216143       28.2401528455
  C         7.8697058975        2.7261747795       22.9143937895
  H         8.5132145695        6.3890859262       23.1036175478
  C         8.4724183058        4.6901312532       21.8789599457
  H         5.6956200780        6.1074415415       23.4940626748
  H         5.0668774612        4.8799502574       24.6377727070
  C         3.8724279386        6.7148192178       24.3585915084
  C         5.6627354656        1.6457669952       28.6855348056
  C         8.3573742657        3.3403111745       21.7419614387
  H         7.8542417904        1.6833404159       22.7677439723
  C         8.9653870708        5.0346264537       20.5866889672
  H         3.2660425753        6.1257186655       23.5918003978
  H         4.0704195521        7.7002605567       24.0178455305
  C         2.9652109415        6.5957899112       25.5818940454
  C         5.7710663209        0.3005968850       28.9193017357
  C         5.3837151042        2.5229782911       29.8738361542
  C         8.7794674061        2.6343448904       20.4702288269
  C         9.1997437072        3.9634337632       19.7940257800
  S         9.5084189011        6.5121549876       19.8652696592
  H         1.9567895971        6.9335083689       25.3462474818
  H         3.4116811188        7.2332680760       26.3626974152
  C         2.8830711126        5.1178441661       26.1149348698
  N         6.1759145899       -0.6302522283       27.9364165745
  C         5.4778411823       -0.3247477024       30.0964056197
  C         5.1496055006        1.9669539688       31.1315733555
  H         5.3377767569        3.5752590460       29.7968384495
  C         7.7271690195        1.8340390564       19.6543495787
  C         9.9870888299        1.6766880152       20.8503636981
  C         9.5720671024        4.3664975445       18.4947846894
  C         9.7434286948        5.7302400283       18.3753217176
  H         2.5415559545        4.4040278776       25.3973930282
  H         3.8447031834        4.8954428734       26.5178943533
  C         1.7729823944        5.0227307548       27.1516487145
  S         6.0742629061       -2.1172465104       28.5087268470
  N         5.6449932690       -1.7379686891       30.0495242549
  C         5.1701967630        0.3894972360       31.2956913490
  H         4.8468218410        2.6067246794       31.9109716574
  H         7.3408961068        1.0293589551       20.2557637673
  H         8.2427178239        1.2988061180       18.8139515807
  C         6.4897430671        2.5874678468       19.1869363165
  H        10.0995153739        0.8390384078       20.1646830344
  H         9.6255884921        1.1389117333       21.6739504605
  C        11.3355132549        2.4386102038       21.1909136120
  H         9.6005798640        3.6522891038       17.7110278021
  C        10.1747394583        6.4940197240       17.1570198722
  H         1.4256847729        3.9718421624       27.4408292577
  H         0.8807138418        5.4925204918       26.7776254281
  C         2.0669830522        5.8843353585       28.4531146016
  C         5.0496424164       -0.3786826931       32.4793388267
  H         6.7187756286        3.1863235371       18.3109124032
  H         6.0335903003        3.0730676051       20.1233984918
  C         5.4443876298        1.5112970321       18.8638298394
  H        11.2682771374        3.3657732951       21.8028390302
  H        11.6324069921        2.7576243417       20.1809354396
  C        12.4288630496        1.5165550305       21.8136780190
  C        10.3282514906        7.8477898299       17.0233072973
  C        10.2778467733        5.7308513175       15.8920895450
  H         2.8131847403        6.6007001874       28.2405484173
  H         1.0908227144        6.3511496419       28.7139229572
  C         2.4644509286        5.0303601022       29.6877291945
  H         5.1214364294       -1.4992250870       32.4082125393
  C         4.7295392486       -0.0242066929       33.8113181238
  H         5.1555070468        1.1368382598       19.8149577050
  H         5.8662724497        0.7931601741       18.1727123370
  C         4.2359211748        1.9965987164       18.1140863523
  H        12.0440697855        0.6854621880       22.3330979649
  H        13.0285838689        1.1444022007       20.9328973103
  C        13.3921112883        2.3207111614       22.7227403057
  N        10.1266972724        8.7434907666       18.0032022199
  C        10.6181131520        8.4302638785       15.7969123356
  C        10.5755626089        6.2856466490       14.7038195242
  H        10.1259986801        4.6156619727       15.9300287223
  H         2.9573464046        5.5962321447       30.4874615819
  H         1.6044820223        4.6336674403       30.1631868067
  H         3.1275999305        4.2375482267       29.3009936585
  S         4.3337488746        1.5923518582       34.4215594740
  C         4.6469459374       -1.1202324720       34.8435674234
  H         3.5620635530        2.5735098391       18.7160282363
  H         4.4066304991        2.7336823930       17.2932944520
  C         3.6230858738        0.7060117951       17.4382124103
  H        13.8618497007        1.6280445259       23.3521434335
  H        12.8641997297        3.1469362235       23.2730435407
  C        14.3591407798        3.1690041382       21.8854958456
  S        10.1505750034       10.2354236069       17.3615106720
  N        10.6128254179        9.8676698464       15.8808389195
  C        10.8521388239        7.7380765950       14.6122594324
  H        10.5437483241        5.6837081218       13.7917927569
  C         4.2134290067        0.7376482040       35.9937363483
  N         4.3516418409       -0.6381477673       36.0539018111
  O         4.8571504523       -2.3221584175       34.5622525794
  H         4.3198927619        0.0817286726       16.9692811325
  H         2.9379173447        1.1424660524       16.6630649201
  C         2.6788679469       -0.0627254588       18.3885813971
  H        14.8660432324        2.4720588837       21.2295090248
  H        13.9284255106        3.7323903840       21.1081799323
  C        15.3838122400        3.9359984117       22.6986424060
  C        11.3509915976        8.3833973319       13.4899096900
  S         3.8731354060        1.5533409718       37.4347422805
  C         4.2238185348       -1.4345912930       37.2925773461
  H         3.2122137021       -0.5019556884       19.2206225381
  H         2.0264407640        0.7607638490       18.7400951234
  C         1.8273584001       -0.9880202174       17.6916659654
  H        15.1754353863        3.9011103845       23.7663820006
  H        15.1891594308        4.9929576318       22.4682512497
  C        16.8280265858        3.6514434303       22.2960097714
  H        11.2328412912        9.4675736680       13.5125350099
  C        11.6959225241        7.9466608202       12.2515555451
  H         3.4691899688       -1.1349749743       37.9723913267
  H         3.8648901966       -2.4390632401       36.9888683289
  C         5.6191380572       -1.3993671818       38.0074041439
  H         1.5069090427       -0.5859538954       16.7181042530
  H         0.8943446340       -1.1138846122       18.2744426726
  C         2.4626899240       -2.3138439759       17.4394169109
  H        16.7621141054        3.2431271279       21.2724966708
  H        17.4335406628        4.5110039137       22.3517670548
  C        17.5365505493        2.6021099134       23.1798219642
  S        11.9690623811        6.3158833090       11.6494770803
  C        11.8272734676        8.9997446320       11.2396670919
  H         5.6858217308       -0.6456605082       38.8317586045
  H         5.8123819706       -2.3784994817       38.4272304085
  H         6.3993261337       -1.1223653316       37.3071063226
  H         3.4847745989       -2.1585400194       17.1101674948
  H         1.8759440253       -3.0498427777       16.8763754124
  H         2.6977166726       -2.8016956692       18.3786533501
  H        18.4935009152        2.2606512805       22.7487082802
  H        16.9633290797        1.7685560301       23.4684354835
  H        17.7636194267        3.0003057129       24.1953672735
  C        12.3847738948        7.1377299581       10.1830727341
  N        12.2799455868        8.4481399568       10.0961574870
  O        11.7257534969       10.2011389241       11.4447439758
  S        13.0053930928        6.1410356033        8.8417710430
  C        12.4056548440        9.2159836587        8.8208559135
  H        12.7780300473       10.1722982510        9.0925601855
  H        13.2456396740        8.8459299627        8.1929110749
  C        11.0007994241        9.2812191042        8.0912809804
  H        10.5703007926        8.2851726757        8.2919927532
  H        10.3350143605       10.0719335507        8.5433339100
  H        11.1072215160        9.5499325275        7.0293614216
  H         2.8378673295        3.7055467026       11.7789796394
  C         2.9713808295        2.6524613855       11.9926920078
  H         2.0579754202        2.1987104218       11.6936686404
  C         4.1540498742        2.0902507476       11.3455557571
  C         3.0592168430        2.3997746993       13.4625618875
  C         4.0756174599        2.2176683796        9.8028712683
  H         4.1726438034        1.0803418701       11.6861894025
  H         5.1373660680        2.4576911474       11.7353713728
  H         4.0584151171        2.6519258179       13.8529342298
  H         2.7292838211        1.3871587156       13.7618517138
  H         2.2353332016        3.0041433255       13.8966535065
  C         4.9111164177        1.1458690905        9.1450693139
  H         3.0685280634        2.1540543624        9.5476986932
  H         4.3284261824        3.1871680727        9.4992166260
  C         5.6628781165        1.7052945206        7.9863164771
  H         4.2516629413        0.3462066230        8.8959038725
  H         5.7400471412        0.8326908592        9.7856824550
  C         6.8394244739        2.6738011490        8.3466512082
  H         5.0186221940        2.2590471751        7.3502874392
  H         6.1099141304        0.8272313477        7.4735068146
  C         8.0819444935        1.9285512654        8.8072059442
  H         7.1811797909        3.3355228237        7.5439784760
  H         6.4191081140        3.4429589339        9.0547107752
  C         9.2958279911        2.8399582936        9.0279582459
  H         8.2569005088        1.0517880353        8.2543191228
  H         7.8908744232        1.4889700563        9.7635719344
  C         8.9755558868        4.1498370697        9.7965300811
  C         9.8081636825        3.6030825882        7.8183019464
  C        10.5161817757        2.0225501497        9.6307783513
  C         9.2014447047        5.2980663466        8.9927879228
  C         8.4304533426        4.4772287009       11.0554040432
  C         9.7940657119        4.9498916167        7.7901142939
  C        10.2209323364        2.9875418167        6.6272129620
  H        10.0922971298        1.4383611233       10.4567000722
  H        10.8137697497        1.3468465919        8.8250607905
  C        11.7778802980        2.9569390858        9.9350101043
  S         8.7431558330        6.7588696866        9.8179094204
  C         8.3419183142        5.8504804244       11.2566420650
  H         8.2927921324        3.6776689685       11.8009639367
  C        10.1435972264        5.6605576384        6.7060743007
  H        10.3946137395        1.8836211839        6.6395063759
  C        10.5327038561        3.6800492466        5.5180245888
  H        11.4941564254        3.9551097157       10.1703283418
  H        12.4232412496        3.0742001361        9.1152966430
  C        12.7602003664        2.4062074325       11.1003344896
  C         7.9144925901        6.5423744797       12.5730677447
  C        10.4135148529        5.0501142189        5.4787361381
  H        10.1534280485        6.6998624312        6.8349450385
  C        10.9654151303        3.4023209395        4.2488235351
  H        13.7062283916        2.9338617761       10.9854356284
  H        13.0122212895        1.4102069990       10.8492633607
  C        12.1153385816        2.4030222294       12.4324364312
  C         7.9690388864        7.9549482166       12.8722811615
  C         7.4431956408        5.6413127382       13.6729807459
  C        10.8277982341        5.8559770319        4.2421430343
  C        11.0840217757        4.5543303334        3.4449825638
  S        11.2492498933        1.9103852702        3.4406896912
  H        11.6805602223        3.4057495333       12.5747971045
  H        11.3401471635        1.7052465198       12.4871242446
  C        13.1344941080        2.1245468021       13.5314059985
  N         8.2331491599        8.9923484803       11.9766257030
  C         7.6295283880        8.4529504470       14.1192054208
  C         7.0629446468        6.2127329581       14.8750063930
  H         7.3113385887        4.5851983116       13.5850819489
  C        12.1584740457        6.7419669539        4.3512121839
  C         9.6544041398        6.6644404431        3.6028750003
  C        11.3465482355        4.1796648965        2.1002673952
  C        11.3702668090        2.8078549723        1.9109591930
  H        13.9631146752        2.8263111820       13.5310125132
  H        13.6466469360        1.1338718259       13.5154090874
  C        12.4671849759        2.1230365333       14.8604300231
  S         8.1850921050       10.4677866015       12.6829755369
  N         7.7358770173        9.8639805616       14.1494855148
  C         7.2036461033        7.6385925807       15.1472674549
  H         6.7966840738        5.4995425548       15.6495458195
  H        11.8990422047        7.5804641519        5.0019509678
  H        12.4641887952        7.1734746166        3.3950056308
  C        13.2792047571        5.8307399398        5.0347163717
  H         9.3154032575        7.3406596924        4.3561168233
  H         9.9908258343        7.2223137954        2.7778096467
  C         8.4781443783        5.8186884571        3.2370058559
  H        11.4853384143        4.9180973795        1.3262381367
  C        11.6253632692        2.0269903506        0.6977743849
  H        11.8091888623        3.0401880401       14.9482602682
  H        11.6334316730        1.3721926698       14.8730705538
  C        13.4496558861        1.9466246735       16.0209612726
  C         6.8713176961        8.2258571460       16.3903385004
  H        13.0448923774        5.4506995135        5.9751512708
  H        13.5161500488        4.8910871796        4.4728954478
  C        14.4966832095        6.7909535274        5.0100338592
  H         8.1901695130        5.2405924004        4.1111979560
  H         8.6951185084        5.1667009401        2.3791170399
  C         7.2286950249        6.7051263257        2.7975801694
  C        11.8452401987        0.6215053275        0.6208806167
  C        11.9291798202        2.7714519418       -0.5334077227
  H        14.4020821095        2.3986256015       15.7184304804
  H        13.7424071285        0.9461535291       16.2191805155
  C        13.0795746810        2.7191098201       17.2579678658
  H         6.6849485841        9.2237388696       16.4407640711
  C         6.5677487508        7.6995222960       17.6586666546
  H        14.4770231555        7.5008416858        5.8167617973
  H        14.4627632525        7.3166792052        4.0822183054
  C        15.8198849996        5.9533699965        4.9241657451
  H         6.9530495278        7.2897950587        3.6877269851
  H         7.5955664970        7.2592099361        1.9611155487
  C         6.0420471851        5.7026647050        2.5011749651
  N        11.6040539360       -0.2805833839        1.6815146834
  C        12.0938367380       -0.0263825267       -0.5928881190
  C        12.2744812658        2.0974070596       -1.7258008418
  H        11.9635496001        3.8227633900       -0.6189473181
  H        13.5717135323        2.5791004513       18.2076927078
  H        12.0180626217        2.6787834934       17.5966117025
  H        13.4862133820        3.6901812416       16.9745302870
  S         6.3533707393        6.0787491206       18.0747098581
  C         6.6074136288        8.6701184554       18.7427948584
  H        15.7849871711        5.3498307755        4.0681823342
  H        16.6472578071        6.6271009403        4.7441000954
  C        16.1417466147        5.1794611134        6.2010177780
  H         5.8095448840        5.1547170242        3.3628848671
  H         6.3730439906        4.9339522416        1.7889721120
  C         4.7242936292        6.4836403353        2.1927289770
  S        11.6648121974       -1.7937223501        1.0428721440
  N        12.0785494966       -1.4187945189       -0.4754761765
  C        12.3781379874        0.6543231847       -1.7887018682
  H        12.3112888431        2.6624270128       -2.6412770316
  C         6.0391000452        6.6691719881       19.6941937632
  N         6.1842455151        8.0011100108       19.8215775206
  O         6.8286971316        9.8334520987       18.5972532622
  H        15.8943799950        5.7897626932        7.1073879673
  H        15.4206650092        4.3224911323        6.3404686953
  C        17.6409399785        4.8242232878        6.4425653411
  H         4.0460091606        5.6546782684        2.0767002199
  H         4.2834922878        7.0286821852        3.0648758432
  C         4.7470700465        7.4114146772        0.9134239569
  C        12.7013145956       -0.1021378285       -2.9398235076
  S         5.1726990410        5.8760764906       20.9250639080
  C         5.8849635766        8.6756720843       21.0655433349
  H        17.6618414829        4.1667443743        7.2941373430
  H        18.1714619411        4.3552321074        5.5992524248
  C        18.5260389309        5.8934685121        6.9563890115
  H         4.7943375886        6.7909888120        0.0369578182
  H         5.6311208193        7.9826309087        0.8503267587
  C         3.5845178970        8.3729696051        0.7800268792
  H        12.3548158824       -1.0713184049       -2.8106971657
  C        13.2818334681        0.1365435047       -4.1748920207
  H         4.9963727634        8.2934968222       21.5613730263
  H         5.5130545982        9.7083045994       20.8550584504
  C         7.1913735203        8.8489072681       21.9109099909
  H        18.3834550221        5.9789827449        8.0452936858
  H        18.1296437681        6.8408198467        6.5007257762
  C        19.9885064973        5.6511492469        6.6083165234
  H         3.2727257803        8.3522127225       -0.2929567070
  H         2.7541490630        8.1429846050        1.5311970008
  C         4.0477001044        9.8411417647        0.9454303206
  S        14.0301374462        1.5681165918       -4.7444069845
  C        13.1608216120       -0.9981632748       -5.1267688514
  H         7.2273293728        8.2541738810       22.8206722863
  H         7.2537825832        9.8793841883       22.1837310073
  H         8.1265683389        8.6426657182       21.2939768357
  H        20.1743784283        6.0902006641        5.6943280574
  H        20.6099375509        6.0713858892        7.3857896287
  H        20.2609349786        4.5874248523        6.4985702705
  H         4.7157122518       10.1572919408        0.2561339815
  H         3.1950271370       10.5788370311        0.9887494308
  H         4.4946749886        9.7527308427        1.9116567035
  C        14.0202327466        0.6827946701       -6.3253547961
  N        13.7211902017       -0.6765386181       -6.2813839669
  O        12.7052659260       -2.0641643649       -4.7939260895
  S        14.7051153991        1.3965097847       -7.7327861201
  C        13.6385250784       -1.6448325119       -7.3549076980
  H        13.8279162607       -2.6427461808       -6.9269169785
  H        14.4303950884       -1.5254616215       -8.0261449279
  C        12.3821463348       -1.4283386608       -8.2188763448
  H        11.4622763014       -1.5186628435       -7.7060574127
  H        12.3453629117       -2.0451557817       -9.1461763804
  H        12.3444612092       -0.4192332948       -8.6961986907
