352
 i =    34100, time =    17050.000, E =        97.5253710392
  H        10.5490636389        4.4744785604       31.6311525618
  C        10.5550457590        5.4074216967       32.1431257662
  H         9.5088624086        5.5865883745       32.1004563381
  C        11.4438823206        6.3505872861       31.2801936822
  C        11.1881445389        5.2802540539       33.5379277314
  C        11.6247587092        5.7465222786       29.8918013220
  H        11.1757141408        7.3895511037       31.0809574614
  H        12.4500985203        6.3658163142       31.8189901032
  H        10.4313620912        4.9983159802       34.2201239127
  H        12.0210397949        4.5323668165       33.6885226393
  H        11.6527769882        6.2392717095       33.9147760923
  C        10.3629303933        5.4477221841       29.0526595643
  H        12.2292949135        4.7303347505       29.9360727036
  H        12.4278305967        6.3092408055       29.3600618942
  C        10.5884013444        5.5831350287       27.5598687513
  H         9.8934777897        4.4786223289       29.1377129888
  H         9.5970506555        6.2177070714       29.2339565173
  C         9.6553366433        4.6946294896       26.7635358020
  H        11.6397220680        5.4503598577       27.4064726463
  H        10.5388041432        6.6246465148       27.3361283830
  C         8.3282257358        5.5060283716       26.5259459652
  H        10.0760874626        4.4870079051       25.7556401550
  H         9.4492709020        3.7454956833       27.1868130843
  C         7.2042174205        4.7924619175       25.8363597175
  H         8.0354394774        5.9637199325       27.5086467776
  H         8.4636097434        6.3836386779       25.9605624569
  C         6.9457873913        3.4313810923       26.5541148733
  C         7.5890995402        4.1193742063       24.5398660207
  C         5.9612858751        5.7023109668       25.8319222172
  C         7.1022252999        2.3529022278       25.6530780954
  C         6.6332615629        3.0488006525       27.8337906522
  C         7.5343528916        2.7632539375       24.4433602173
  C         8.0036749976        4.7547668327       23.4030031408
  H         6.3096344999        6.7375714550       25.5185080628
  H         5.6735058352        5.8794463812       26.8608635761
  C         4.7781235738        5.0529734484       25.1072431941
  S         6.8345306137        0.8029786500       26.4614218317
  C         6.3523941216        1.6693156332       27.8683704034
  H         6.5567942406        3.8126716951       28.5624981408
  C         8.0199881332        2.2523645674       23.2961019071
  H         8.0868314559        5.8057291086       23.3203695467
  C         8.2718207415        4.1973160600       22.1873897639
  H         5.1201157210        5.0293595394       24.0803388473
  H         4.5736003171        3.9494932579       25.2659642177
  C         3.5483601027        5.9181392645       25.1040246294
  C         5.7770807641        1.0025951646       29.1680609451
  C         8.3728602921        2.8920492725       22.0916558241
  H         7.9308003331        1.1943214512       23.2245353971
  C         8.7239238498        4.6327040659       20.9389567856
  H         2.7808191430        5.4246788624       24.4718748306
  H         3.7316874462        6.8536521044       24.6381862254
  C         2.8249813318        6.1095195965       26.5059879843
  C         5.9530463717       -0.3550985923       29.5518790410
  C         5.1433957211        1.8254390168       30.2131699749
  C         8.7717473100        2.1855261087       20.7800866599
  C         8.9203038793        3.5030399290       20.0980055010
  S         8.9573929458        6.1987699650       20.2355502947
  H         2.0342155731        6.8136645931       26.4906972438
  H         3.5512461799        6.6555027293       27.1141429263
  C         2.4163519872        4.7886484286       27.1011796886
  N         6.2959314227       -1.3644903198       28.6767729223
  C         5.7358342431       -0.8299582286       30.8387966504
  C         4.9326807721        1.3753649477       31.5112989010
  H         4.8857970031        2.9205390191       30.0664847673
  C         7.6091042690        1.2470206643       20.2203172834
  C        10.1905798752        1.5399184402       20.8855255073
  C         9.1672285401        4.0162960997       18.8281823782
  C         9.3183136888        5.3584280901       18.8050590606
  H         1.7637021918        4.3008568615       26.3982165417
  H         3.3072950245        4.1917304602       27.3011041268
  C         1.6762051137        4.9737908563       28.4224413464
  S         6.4218402351       -2.7909058887       29.4522511918
  N         6.0395339141       -2.2158491583       30.9334398293
  C         5.2190132135       -0.0296657611       31.9100253609
  H         4.5063356400        2.0424986264       32.2274369868
  H         7.4633214649        0.5034686906       20.9782975818
  H         7.9799370030        0.7203849254       19.3706126082
  C         6.2742636302        1.8405821838       19.9617208253
  H        10.4722932294        1.1271931178       19.9157529461
  H        10.0513512028        0.6301639589       21.5459996559
  C        11.3422488484        2.3924554325       21.3837112764
  H         9.3137409238        3.2883573619       18.0798555749
  C         9.7321772306        6.0300058400       17.5054984309
  H         1.2649403007        4.0441450923       28.7996719765
  H         0.7954476074        5.5210383322       28.1926546050
  C         2.3842499342        5.7255313179       29.4475607871
  C         5.1269071421       -0.5960872548       33.2389596180
  H         6.3062856718        2.9320855568       19.9340899955
  H         5.4945158379        1.6985680135       20.6605685446
  C         5.6866670353        1.3741667292       18.6349214656
  H        11.0773821691        2.7367351724       22.3537291048
  H        11.4976969865        3.3112159689       20.8207123041
  C        12.6536392320        1.6475030612       21.5383130117
  C         9.7933435030        7.4574931249       17.3635896159
  C        10.0366025483        5.2380922826       16.2897441040
  H         3.3738872997        5.3533609729       29.5774729994
  H         2.3848535832        6.7609073734       29.1518941464
  C         1.6525503044        5.5368515563       30.7551863875
  H         5.1194824613       -1.6757611395       33.1769705710
  C         4.8283104471       -0.1592603352       34.4823980035
  H         5.7559617125        0.2983302887       18.7401528661
  H         6.3069274183        1.7379900306       17.7433042075
  C         4.1974896765        1.8415668198       18.3906683405
  H        12.4107828313        0.8111593621       22.2044550030
  H        12.9131570434        1.1227974726       20.6631335606
  C        13.7870332153        2.5107689851       22.1082125493
  N         9.6550654109        8.4525061293       18.3502897456
  C        10.0892946989        8.1028430022       16.1474026021
  C        10.4044098853        5.8516086171       15.1359561094
  H        10.0829104084        4.1366866237       16.3581357729
  H         1.7002777790        4.5571719300       31.1398264772
  H         2.1038047214        6.2175294379       31.4479214148
  H         0.6289771931        5.7425037141       30.4423716535
  S         4.4560228415        1.4483941563       34.8837909816
  C         4.8981832322       -1.1899267478       35.6016238852
  H         4.0051609715        2.6764995626       19.0591371368
  H         3.9157428133        2.2831584214       17.3916054003
  C         3.1859557693        0.8621241246       18.9431087543
  H        13.2362508810        3.2408895600       22.7752758301
  H        14.2476480191        3.0620681820       21.3059894664
  C        14.6618141989        1.8024000240       23.1083234166
  S         9.9434645091        9.9112880322       17.7149742682
  N        10.2649895713        9.4805141455       16.2030246077
  C        10.3161758474        7.3682563012       14.9973423995
  H        10.7405059530        5.2233172429       14.3525212080
  C         4.2890670235        0.7957423756       36.5611255375
  N         4.4403259617       -0.5404163380       36.7026936277
  O         5.3080518194       -2.2904127125       35.4494969391
  H         2.2644079027        1.3794267465       19.1364733289
  H         3.5405900767        0.4897769791       19.8645360216
  C         2.9326548839       -0.3120569203       17.9659453175
  H        14.0920458972        1.4938462018       23.9956561199
  H        15.0935597080        0.8372406087       22.6516431437
  C        15.8251642047        2.6165405816       23.7068603987
  C        10.6689632375        8.0724941913       13.8458015406
  S         3.8915633223        1.7761167324       37.9609724285
  C         4.3836588666       -1.2763946193       37.9742328703
  H         2.1426148639        0.1114473510       17.2471182382
  H         3.8340216757       -0.6214786483       17.4962497091
  C         2.2858869118       -1.4800398682       18.7415664483
  H        15.5031183310        2.7896843592       24.7216919443
  H        15.9719573455        3.5710524828       23.1364240585
  C        17.1278075216        1.8999096538       23.8725481493
  H        10.6321053267        9.1278792662       13.8286073521
  C        11.1432599600        7.7382239699       12.5850809742
  H         3.6767929143       -0.8174202731       38.6346996701
  H         3.9589445322       -2.2280100734       37.7926753073
  C         5.7809699763       -1.1871677287       38.5739828893
  H         1.7185718863       -1.0510506461       19.5689458729
  H         3.0644348599       -2.1165810820       19.1643366423
  C         1.4569961178       -2.2906482843       17.7396673194
  H        17.7770234986        2.4353532153       24.5614100165
  H        16.9869558384        0.9179302572       24.3273079545
  C        17.8212042499        1.6283843714       22.5112919505
  S        11.6713930818        6.1388839986       12.0985879213
  C        11.2959339944        8.7275211472       11.5068324517
  H         6.3038944948       -0.2438394378       38.3508481408
  H         5.8084320430       -1.4311638639       39.6522895266
  H         6.4092586356       -1.9517672824       38.1586787193
  H         0.6151222015       -1.6253060307       17.3996409264
  H         1.0873872434       -3.0801131966       18.2934028296
  H         2.1015871525       -2.6733033802       16.9538179970
  H        18.9306005484        1.5410964258       22.5989882707
  H        17.7023752005        2.4880316668       21.9652685902
  H        17.4281668116        0.7439277291       22.0032191576
  C        12.1037680687        6.8758825709       10.5676739069
  N        11.8556874561        8.1685815010       10.4554028294
  O        10.9040094315        9.8936039711       11.5391244636
  S        12.5716063859        6.0321004381        9.0792595485
  C        12.0548860614        8.9478465907        9.2436991916
  H        12.4018615875        9.9899096088        9.4375776270
  H        12.9962333627        8.6294361875        8.8424067952
  C        10.8611525961        8.8266729697        8.2873381187
  H         9.9228187054        8.5218511859        8.7658424526
  H        10.6125966039        9.7776874462        7.8984169254
  H        11.1158048695        8.1660999975        7.4548617577
  H         2.8549939247        1.9179247597       13.7828151972
  C         3.5401620546        1.6760766147       12.9408311988
  H         3.5114724663        0.5937780214       12.8612766161
  C         2.9418738897        2.4235368873       11.7710903723
  C         4.9237463775        2.2458483373       13.3016741728
  C         3.8411325924        2.4444477748       10.5021164735
  H         2.8165782674        3.4181355774       12.0924252173
  H         1.9648281914        1.9867623831       11.5946926297
  H         5.1512752100        1.9805720617       14.3381100654
  H         4.8013228222        3.3409957838       13.2289837289
  H         5.8079252276        1.7724892445       12.7877330386
  C         4.3839902922        1.0772261179       10.0859004893
  H         3.3423229128        2.9414683083        9.7564868199
  H         4.7366472834        3.0773252180       10.8054846246
  C         5.0696519916        1.2917739583        8.7161972440
  H         3.6441318442        0.3169834322        9.9092491191
  H         5.0063791412        0.6522310801       10.9212817403
  C         6.3787713628        2.1225596839        8.7081982056
  H         4.4297683209        1.7320647489        7.9214537171
  H         5.3124368606        0.2949110558        8.3393488441
  C         7.5548359730        1.3646296852        9.3412258336
  H         6.6765702166        2.3227442280        7.7313064971
  H         6.1946232124        3.1549443727        9.0978025131
  C         8.9297893023        2.1895497959        9.5833732961
  H         7.7720987494        0.5333929191        8.6677139794
  H         7.1968363242        1.0246369584       10.2906437215
  C         8.5687382569        3.5567117973       10.2754903138
  C         9.3139494300        2.8995739601        8.3083196993
  C        10.1576150017        1.5060290847       10.3429760226
  C         8.8114139971        4.6346085476        9.4868225318
  C         7.9733549972        3.8695321975       11.5233563200
  C         9.2186387806        4.2422735855        8.2268862245
  C         9.7425844988        2.3448383272        7.0893591770
  H         9.6780604161        0.9924046035       11.1555203442
  H        10.4696646138        0.7764207813        9.5865105306
  C        11.2744189514        2.5214312281       10.7411120779
  S         8.3874263944        6.1190773651       10.2324471838
  C         7.9211000668        5.2289227699       11.7000636582
  H         7.7635067195        3.0877579590       12.2406315312
  C         9.6444457288        4.9195689274        7.1296371971
  H         9.8646568376        1.2796198589        6.9396155707
  C        10.1245197277        3.0738682647        5.9673625171
  H        10.8728796430        3.1530958718       11.4774158004
  H        11.5506962256        3.2417544449        9.9755978199
  C        12.5383569861        1.8640413258       11.4131043834
  C         7.4611442286        5.8706416982       12.9829021454
  C        10.1611936315        4.4061377300        5.9457906763
  H         9.6396813509        5.9820624010        7.3309713201
  C        10.5976995496        2.6890207304        4.6900849347
  H        13.4250050183        2.2830100627       10.9678994655
  H        12.4331146028        0.8032917671       11.3281010005
  C        12.7122105553        2.2896541176       12.8848411885
  C         7.5174737244        7.2709644402       13.2535074071
  C         7.0633080410        5.0170306818       14.1034160852
  C        10.7122276326        5.0973625217        4.7129175563
  C        10.9656890184        3.8061889153        3.9550843198
  S        10.6920439512        1.1422035548        3.8376229745
  H        12.8966695329        3.3642380538       12.9199310546
  H        11.7294720271        2.1036223342       13.3161025812
  C        13.7255268294        1.4903769896       13.6112982609
  N         7.8386882266        8.2446606830       12.2986684480
  C         7.1915400898        7.8398029191       14.4345273357
  C         6.6936129611        5.5948349478       15.3067678090
  H         6.9904712404        3.9485897192       14.0418371428
  C        12.0092360754        5.9349066544        5.0466931989
  C         9.7003399192        6.0005534323        3.9968776877
  C        11.4321524704        3.4054200743        2.7278848858
  C        11.3125850149        2.0506578519        2.5147334286
  H        14.6351347331        1.9975631469       13.9958322510
  H        14.1084545686        0.5741864116       13.1429449182
  C        13.1836172029        1.0260198101       14.9754512028
  S         7.7717164428        9.7653115042       12.9599767294
  N         7.3994349314        9.2093944646       14.4878523618
  C         6.8187030829        7.0839455493       15.5326681205
  H         6.5411097137        4.9678568227       16.1560581539
  H        11.8097944454        6.6963114654        5.7897520204
  H        12.3340905790        6.4302146895        4.0567895903
  C        13.1640323812        5.0533402640        5.4935003912
  H         9.4872655845        6.7551896106        4.6637321574
  H        10.1729903329        6.5578799941        3.1685481521
  C         8.3576462247        5.4208922162        3.4491463076
  H        11.8148465033        4.1894971231        2.0514954976
  C        11.6561966679        1.3730878137        1.2044332051
  H        12.2871024200        0.4156764835       14.8972289451
  H        13.8767180871        0.3570178731       15.4451814492
  C        12.9114508024        2.1124149870       15.9856266181
  C         6.5035523200        7.8053988599       16.7838961594
  H        12.8991533291        4.4613497712        6.3212426173
  H        13.4777264152        4.4082531412        4.6602813072
  C        14.4009228997        5.8425108231        5.8078389510
  H         7.7650757956        5.0180321552        4.3030419811
  H         8.4139046711        4.4852047727        2.8168734092
  C         7.4906124602        6.3368744480        2.5811247947
  C        11.7241122364       -0.0359277172        1.0355268142
  C        11.8242183893        2.1746185541       -0.0887706620
  H        12.2572971631        2.9262532553       15.6056549078
  H        13.8931370940        2.6493957675       16.0801860357
  C        12.4074567437        1.5551983326       17.3084174601
  H         6.7593002150        8.8330319045       16.6872969450
  C         6.2136188206        7.4446458976       18.0740605090
  H        14.1080090315        6.5516872895        6.5706615792
  H        14.8460286785        6.3671699361        4.9939122472
  C        15.3903529097        4.9846710366        6.5433291196
  H         7.9064510828        7.2991525619        2.7311230704
  H         7.6520487686        6.2231550452        1.5356828030
  C         6.0254101868        6.1985601999        3.0509848685
  N        11.5809604903       -0.9985886144        2.0241443494
  C        11.9184939016       -0.6340179295       -0.1734113240
  C        12.0526837412        1.5802702866       -1.3227250723
  H        11.6941439357        3.2597077830        0.0201420525
  H        11.9842913533        2.4399271619       17.9063348579
  H        13.1156290465        0.9792759453       17.8934841147
  H        11.6320653151        0.9329319536       17.0413280284
  S         5.7621172261        5.8360437626       18.5721658206
  C         6.2435360987        8.4747492956       19.1333379171
  H        14.9268545253        4.5306080348        7.4538350007
  H        15.7416713944        4.2548363621        5.8789767536
  C        16.5583239933        5.8549370764        6.9877151093
  H         5.8284498615        6.8925439284        3.9411959879
  H         5.7120891005        5.1960870247        3.3589966385
  C         5.0884305445        6.5469972244        1.8924775247
  S        11.8173107688       -2.5030454331        1.4033701175
  N        11.8651349380       -2.0038022942       -0.1291994934
  C        12.1642579246        0.0539128910       -1.3581264845
  H        12.1616768281        2.3423003891       -2.1372683040
  C         5.5668230016        6.6047127742       20.1762072188
  N         5.8260545855        7.9147010546       20.2973156970
  O         6.5378580750        9.6616825861       18.9380077348
  H        17.0523533099        6.2899878633        6.1426737204
  H        16.1578344821        6.5407300548        7.7019293161
  C        17.5676744847        4.9574917714        7.7188376744
  H         5.5803916386        7.2215359453        1.2607943930
  H         4.8429436393        5.6743665246        1.2975099631
  C         3.7889575584        7.2692719978        2.4066964733
  C        12.4592568019       -0.7345635774       -2.5744652195
  S         5.3396187484        5.6247773135       21.5964986163
  C         5.8291108500        8.6359484528       21.5588194796
  H        17.0587318576        4.4951022517        8.6025727750
  H        17.7756226186        4.1047987649        7.1604275342
  C        18.8295292764        5.7495773497        7.9614340458
  H         3.1780598033        6.6348299516        3.0865219955
  H         3.1410153309        7.4571146844        1.5475523408
  C         4.0060863832        8.5960917152        3.1144813543
  H        12.2301113128       -1.7705356441       -2.5625081484
  C        12.9207853578       -0.3637409855       -3.8339285694
  H         4.9150367297        8.3638578801       22.1523986895
  H         5.5715852770        9.6594475058       21.5162486484
  C         7.2198950686        8.6860893890       22.2774017989
  H        19.4611922893        5.3564907557        8.7646586255
  H        18.5773825967        6.7688149824        8.2833878616
  C        19.7634796311        5.7991759674        6.7392854159
  H         3.5196835691        8.5290766917        4.1312489341
  H         5.0255041567        8.8466154943        3.3969677487
  C         3.5524278596        9.7903925884        2.1635019431
  S        13.2510352231        1.1887290950       -4.3478167026
  C        13.1214279262       -1.4272099131       -4.8101177600
  H         7.2032769139        9.0128058956       23.3297707190
  H         7.9253293710        9.2823926715       21.6665710228
  H         7.6205444906        7.7166853681       22.2308951926
  H        19.5575068639        4.9933875408        6.0153090369
  H        19.4298233298        6.7229437211        6.2294035138
  H        20.7868391374        5.9522048055        6.9470632222
  H         4.4352942652       10.0385965313        1.5567133342
  H         2.6970868877        9.5540187391        1.4451601912
  H         3.3679267893       10.6644091031        2.6927390069
  C        13.7192687864        0.4416725722       -5.8243972659
  N        13.6572246801       -0.8709402338       -5.8983634105
  O        12.8009039458       -2.6538645660       -4.6678078353
  S        14.5675356629        1.2320358364       -7.2188630790
  C        14.0532976655       -1.6244194188       -7.0741385796
  H        14.5080364944       -2.5436343796       -6.6948831525
  H        14.8238935725       -1.2128719648       -7.6594390280
  C        12.7968995049       -1.9030380265       -7.9142854309
  H        11.9397278558       -1.4308067895       -7.4261133181
  H        12.4441187173       -2.9546843804       -7.9816548801
  H        12.8832244616       -1.5442147241       -8.9673750847
