352
 i =    13700, time =     6850.000, E =       120.4047496935
  H        10.3767372903        4.4017469951       32.9528628035
  C        10.2253156434        5.4673026375       32.8873058562
  H         9.4968338568        5.7404160665       33.6565337942
  C         9.6201768321        5.8154831875       31.6189467976
  C        11.5390813172        6.2285868550       33.1250300284
  C        10.3299924824        5.3120664025       30.3163671611
  H         8.6149426533        5.5405911419       31.7088076527
  H         9.6185749832        6.9311447583       31.4539996272
  H        11.8250864659        6.0250909114       34.1388353073
  H        12.2095062325        6.0572781336       32.3000676296
  H        11.3577545941        7.2797576074       33.1083057403
  C        10.2830719559        6.3645317498       29.2700479832
  H         9.8120557875        4.3597214916       30.1397660599
  H        11.3729161481        5.0500709236       30.3943940235
  C        10.6321997250        5.8774937334       27.8647960156
  H         9.2921312490        6.8150708176       29.1951319028
  H        11.0938279519        7.2167499486       29.3476179850
  C         9.4503088232        5.1287897193       27.2047674032
  H        11.4263724727        5.1301475829       27.9888073775
  H        11.1467384618        6.7400837270       27.3606691054
  C         8.3493794168        5.9307753217       26.5133317673
  H         9.8606318055        4.4173666066       26.5372447455
  H         9.1030437662        4.4395997600       27.9149913283
  C         7.3928232514        5.2373284745       25.6551963528
  H         7.7253918664        6.4679563186       27.2195097490
  H         8.7095892190        6.7725074807       25.9199368140
  C         6.9976712296        3.8808984842       26.2208661881
  C         7.9225335399        4.5546579057       24.3752351155
  C         6.2138585848        6.1527940911       25.2392220864
  C         7.2336629800        2.8258186921       25.4349073774
  C         6.4545377861        3.4975615072       27.5067082626
  C         7.8416102194        3.1822374080       24.2524252340
  C         8.4380790806        5.2191960680       23.2386335569
  H         6.5563705968        6.6935776302       24.3797301125
  H         5.9109124642        6.8750254579       25.9665920935
  C         5.0854182792        5.3230059066       24.5781814830
  S         6.6384312058        1.3322806542       26.1464374480
  C         6.2426183740        2.1557326940       27.5911296910
  H         6.2975595008        4.1864179589       28.3307011960
  C         8.2142729331        2.5364266877       23.0732929816
  H         8.4572577860        6.2907310559       23.2552435675
  C         8.7112136332        4.5945953157       22.0159380100
  H         5.3089093147        4.6851083657       23.7649724622
  H         4.8016641524        4.5631341799       25.3267329230
  C         3.7394960647        5.9770304253       24.3068186816
  C         5.7688750274        1.5484581591       28.8025235468
  C         8.6658158825        3.2137090800       21.8991649762
  H         8.0836716809        1.4273928995       22.9600430329
  C         9.0011603724        5.0025221513       20.7243893743
  H         3.0819120109        5.2456018376       23.9338254740
  H         3.7618982148        6.7074885773       23.4483260766
  C         3.0202304047        6.5292783616       25.5841474445
  C         5.7964827988        0.0782233210       29.0289255759
  C         5.3892573329        2.3669293548       29.9635548373
  C         8.8723411190        2.5794652527       20.5376656104
  C         9.1171929072        3.9776123648       19.8701403627
  S         9.2368388584        6.6065863789       19.9851113400
  H         2.0891984585        6.8770737985       25.1109813465
  H         3.5328451022        7.3145291632       26.0050888905
  C         2.7089479256        5.5706643730       26.8088875654
  N         6.3154761724       -0.9034803659       28.1654464561
  C         5.5343474523       -0.4790996239       30.2222557091
  C         5.0593674298        1.8232671720       31.1759321407
  H         5.1863684924        3.4292225336       29.7585830426
  C         7.6974345771        1.8392534242       19.8275509815
  C        10.2138798355        1.7928821533       20.4583534395
  C         9.3625946639        4.4027627482       18.5636896486
  C         9.4260794195        5.7880453430       18.4929061728
  H         2.2049465076        4.7920133284       26.2642508670
  H         3.5842636243        5.2308963472       27.1943262620
  C         1.7458799582        6.1035921802       27.7831394711
  S         5.8828792963       -2.3994278300       28.6977825246
  N         5.5645798524       -1.8698477703       30.2345171041
  C         5.1662972713        0.3079974829       31.3998572813
  H         4.8026158596        2.4806626986       31.9518347652
  H         7.3441465229        1.0329588950       20.4405954583
  H         8.0745075633        1.4341380402       18.8517200021
  C         6.3670166259        2.6385735425       19.4697512478
  H        10.2059122535        1.5447975217       19.4249315441
  H        10.1464344169        0.8166445011       20.9043590923
  C        11.5070412964        2.5359218120       20.8534799621
  H         9.5973502444        3.7521722004       17.6906846433
  C         9.7687688447        6.4778703474       17.2197391643
  H         0.8048329754        6.4749894486       27.3089604301
  H         2.1573422246        6.8840074045       28.3391427982
  C         1.4152466053        5.0245605032       28.8124859524
  C         4.9826610819       -0.3892987206       32.6362486005
  H         6.6089304624        3.2005423009       18.6246657203
  H         6.1643070375        3.4162308415       20.2098802008
  C         5.1449354766        1.8185146515       19.1825080608
  H        11.4307805006        2.8600630269       21.8373669783
  H        11.6593352200        3.4355684056       20.2925642835
  C        12.7485652495        1.5789237022       20.7368377666
  C         9.7591833474        7.8540514862       16.9607650854
  C         9.9972065867        5.6775301187       15.9479406779
  H         0.5384444323        4.5001127372       28.4980844527
  H         2.2274936145        4.4349458187       29.2087877670
  C         0.9944268067        5.5612541213       30.1436107642
  H         5.3189608247       -1.4190633342       32.6059980518
  C         4.7251070613        0.0271851752       33.8921917112
  H         4.8220730939        1.3386481231       20.0735878796
  H         5.3787997424        1.0898344759       18.4437048522
  C         4.0126015339        2.6176724451       18.5801111142
  H        12.5307630330        0.6005171324       21.1417765551
  H        12.7682511798        1.2964685230       19.6817031770
  C        14.1208658242        2.2471374918       21.3224699838
  N         9.4298420663        8.6926161779       18.0006149525
  C        10.1305103064        8.5326586239       15.7954954258
  C        10.2962161251        6.2996167191       14.7227192946
  H         9.9166999733        4.6248701084       16.0045609859
  H         1.2456638086        6.5690176845       30.1131853640
  H        -0.0684917500        5.4919942793       30.1894609727
  H         1.4718803465        4.9968436992       31.0210201233
  S         4.4468163895        1.6399123318       34.4105212218
  C         4.7190234412       -0.9893293940       34.9338480943
  H         3.9474269559        3.6413597823       19.0668034796
  H         4.1405051794        2.8261028710       17.5333280293
  C         2.6715025988        1.9874522394       18.5835439473
  H        14.3008015875        3.0335985148       20.5776998566
  H        14.8658752585        1.5560885146       21.1988276486
  C        14.0089442308        2.9063908640       22.7597217299
  S         9.5503989703       10.2233042570       17.5387428077
  N        10.0910881464        9.9051265279       16.0312856899
  C        10.5299154237        7.8083391336       14.6638275157
  H        10.3781557615        5.8121153917       13.7788604041
  C         4.2376862164        0.9344901821       36.0096392727
  N         4.2830566853       -0.4276206635       36.0611801624
  O         4.7191123882       -2.2136108545       34.6877131660
  H         1.9993931923        2.6726356106       18.2707101538
  H         2.3638022204        1.7182292335       19.5892174406
  C         2.5844657946        0.7759540288       17.7340233262
  H        13.1209495793        3.5716582843       22.8007779694
  H        13.7573487114        2.1543009347       23.4279641646
  C        15.2622736414        3.5600064802       23.3862667757
  C        10.7869133593        8.6237032690       13.4885189269
  S         3.7003281944        1.7861580068       37.5142414049
  C         4.1227314479       -1.1862770149       37.2971276235
  H         1.7407703637        0.9476329908       17.1262032296
  H         3.3862390623        0.7854928878       17.0280304151
  C         2.4696863326       -0.4579567959       18.5469255064
  H        14.9699530687        4.1198453367       24.2128760998
  H        15.6236459105        4.2263222591       22.6002418087
  C        16.3462659494        2.5047227155       23.6771851656
  H        10.7882725366        9.6996493927       13.6688385530
  C        11.1723533311        8.2938141234       12.1998412712
  H         3.3281379516       -0.8685515379       37.8757003024
  H         3.8442352652       -2.2605671928       37.0855523481
  C         5.4132994235       -1.1053550062       38.2077198730
  H         1.4503923192       -0.5611071974       18.9830516892
  H         3.2297383160       -0.4712263974       19.3297819643
  C         2.5812852016       -1.7912813881       17.6468328434
  H        16.7866524828        2.5375602306       24.6939575912
  H        15.8915468918        1.5404594274       23.5975155702
  C        17.4153597106        2.3375360765       22.6093562760
  S        11.7799831611        6.8308820348       11.6005656995
  C        11.1393528843        9.4344025199       11.2426607345
  H         5.6397256556       -2.0767619314       38.5735920303
  H         6.3384621526       -0.6768248647       37.7355555907
  H         5.3100766025       -0.5264693509       39.1056070229
  H         1.8846484365       -2.5709764839       17.9921091449
  H         3.5266754559       -2.2913130739       17.7507698129
  H         2.4364899258       -1.5821859036       16.5648591894
  H        17.9999720545        3.2901516474       22.4190200078
  H        17.0742708372        1.8526574825       21.7333879136
  H        18.3539708502        1.8126634679       22.9497728353
  C        12.0819569949        7.6844083830       10.0613515654
  N        11.6569962612        8.9907472071       10.0928763978
  O        10.7846756998       10.5938346787       11.4942589445
  S        12.5089374892        6.9736450681        8.5009791373
  C        11.7126748463        9.8937122678        8.9765344456
  H        11.7539417632       10.8762331776        9.2306679492
  H        12.6244248796        9.8437288932        8.4190624771
  C        10.4074789216        9.8184828856        8.1329607814
  H        10.1871858520       10.6992454003        7.5600018645
  H        10.5593905071        8.9546656762        7.4689401004
  H         9.6333321764        9.6529480472        8.8284941426
  H         4.3087639896        1.0018306452       12.6389422081
  C         3.7549123982        1.9709351558       12.7886906372
  H         4.5611392726        2.7750687275       12.8390490340
  C         2.7813924886        2.2926105578       11.6186494145
  C         3.1600052071        2.0145536809       14.2278129859
  C         3.6263036642        2.5851707502       10.2981532874
  H         2.2208571203        3.2335881612       11.8758324007
  H         2.0839809022        1.4778098752       11.4893919403
  H         2.5775164269        1.2128843549       14.6933243808
  H         2.5587008872        2.8560944691       14.3074281138
  H         3.9286606762        2.1275374204       15.0289708140
  C         4.4345330502        1.3761876393        9.7984353638
  H         2.9485515086        2.7533543728        9.4479426701
  H         4.2263295590        3.5007869662       10.4340211931
  C         5.1959846471        1.5961533568        8.4634717978
  H         3.5800020100        0.7419555912        9.6183850547
  H         4.9834618665        0.7676020111       10.5595985101
  C         6.2746459490        2.6120852811        8.7031145457
  H         4.5257663923        1.9597245103        7.7630228318
  H         5.6298048674        0.6729957840        8.0411005038
  C         7.5214632530        1.8618269805        9.2645855877
  H         6.5482759350        3.0484978526        7.7694017401
  H         5.9773117608        3.3974026408        9.4153551529
  C         8.8161666469        2.6678918622        9.3484327941
  H         7.7509501488        1.0953564858        8.5921774129
  H         7.2628550120        1.3576632006       10.1672316303
  C         8.4963447612        3.9541622531        9.9970463628
  C         9.3433130813        3.3485643939        8.0743075127
  C         9.9488054748        2.0047601980       10.1081951914
  C         8.7294082942        5.0745174913        9.2433224511
  C         7.8520517449        4.3387270619       11.2051232143
  C         9.2755006524        4.6730768680        8.0173784714
  C         9.7055118785        2.7194300202        6.8930049336
  H         9.3867933336        1.5313326741       10.9351813194
  H        10.2707571376        1.1762889478        9.5272289290
  C        11.1038010039        2.9414486438       10.5271970238
  S         8.2750186038        6.5788889983        9.9037073729
  C         7.7545413521        5.7170746677       11.3064192631
  H         7.6011956917        3.5780204107       11.8946758620
  C         9.6951990734        5.3442167429        6.9006853957
  H         9.5531980000        1.6399491103        6.7718166233
  C        10.0577752628        3.3449501449        5.7422095944
  H        10.6947890944        3.8727869506       10.9046753729
  H        11.8295950031        3.1596824088        9.7756365511
  C        11.9084118399        2.4190898139       11.7219649262
  C         7.3716631541        6.3520137872       12.6039325271
  C        10.1237975145        4.6978413075        5.7386307507
  H         9.7809678483        6.4184643177        6.8931741052
  C        10.5217504863        2.8835230497        4.4875819292
  H        12.7337643465        3.1876413577       11.8352925788
  H        12.4655503101        1.4756101759       11.4185863457
  C        11.0894524196        2.1103249355       13.0070028483
  C         7.6456979807        7.7202769329       12.9238983397
  C         7.0248069038        5.5079058088       13.7679240953
  C        10.5664619152        5.3080575965        4.4715631310
  C        10.7957545872        3.9844307844        3.6710738142
  S        10.7786749664        1.3778869054        3.7194840119
  H        10.0987877824        2.4929274530       12.8634046222
  H        11.0646802398        1.0172090217       12.9777759944
  C        11.6302223403        2.6651828046       14.3054916575
  N         8.0630763137        8.7550342598       12.0591581163
  C         7.2556651151        8.2923488332       14.1195548229
  C         6.6705017783        6.0813679403       14.9883586147
  H         6.9792450664        4.4243244580       13.5555158680
  C        11.8604692669        6.0976842845        4.6504659049
  C         9.4250442293        6.0553622560        3.6852982523
  C        11.1899668346        3.5904207997        2.3990421286
  C        11.1184455858        2.2407538754        2.2612535918
  H        10.6881479273        2.9293971823       14.8119287745
  H        12.1654478608        3.5506394075       14.1732009340
  C        12.4773911343        1.6801896706       15.1044295190
  S         7.7821709368       10.2131071247       12.7141385896
  N         7.3154831231        9.6942018020       14.1759725961
  C         6.8211930275        7.5349369188       15.2429442110
  H         6.2910539840        5.4940602665       15.8041931152
  H        11.6633891647        7.0037122102        5.2366006622
  H        12.1742631717        6.3677013851        3.6413188469
  C        13.0534321063        5.4639152524        5.2300256662
  H         9.1367498435        6.9420098677        4.2025276262
  H         9.9424154591        6.4042990272        2.7960022060
  C         8.1550479163        5.3113140217        3.3994368096
  H        11.4669667654        4.3854182017        1.6668790717
  C        11.4535796389        1.4763787387        0.9638342635
  H        11.9366478487        0.8427989662       15.3725045703
  H        13.1932836342        1.2808217010       14.3896773252
  C        13.3826772208        2.2964230322       16.2804133280
  C         6.5762151667        8.2258640731       16.4747341696
  H        12.8279972793        5.3662759368        6.3053862419
  H        13.5292565671        4.5134574068        4.9404460903
  C        14.2390253462        6.4658253230        5.0625219160
  H         7.8763034314        4.8308483099        4.3816233862
  H         8.1683023465        4.5678714694        2.5964203615
  C         7.1750059590        6.5045531359        2.9452604442
  C        11.5602873213        0.1224654365        0.7384405396
  C        11.6939722460        2.2812607899       -0.2173832680
  H        14.1116626091        2.9326551415       15.7655038858
  H        13.9400415430        1.5651151393       16.7789772498
  C        12.4291303733        3.0744211025       17.2427018460
  H         6.6593692066        9.3115139941       16.4673393698
  C         6.4038762342        7.7586547737       17.8108326567
  H        14.2241181068        7.3461499466        5.6038569172
  H        14.2851098782        6.7568591725        4.0169048796
  C        15.6512861978        5.9926418826        5.4775302332
  H         7.0580498867        7.2741553910        3.6890278494
  H         7.4216892120        6.9627343417        2.0039346546
  C         5.8059158262        5.9935352714        2.6469850985
  N        11.3882713562       -0.8797063410        1.6705199781
  C        11.9984227369       -0.3939358005       -0.4941785195
  C        12.0387851871        1.8283836298       -1.4769787014
  H        11.5676205099        3.3925940937       -0.1980354915
  H        12.8350776225        3.2396807503       18.2631756576
  H        11.5816850060        2.4795128684       17.3349169418
  H        12.1164288522        4.0578137016       16.8746650293
  S         6.1523416053        6.1974615860       18.2049520135
  C         6.3412062390        8.7683834896       18.9199225221
  H        15.9151384219        5.0216333075        4.9711938809
  H        16.5446567069        6.6140963718        5.1280929887
  C        15.6973983236        5.8405903793        7.0261312327
  H         5.2862344659        5.8170354739        3.6092493747
  H         6.0149026663        5.0115962329        2.1379104790
  C         4.9057524602        6.8241939027        1.6526905184
  S        11.3884716267       -2.2984649999        0.8410882342
  N        11.9144922594       -1.7791058327       -0.5336364739
  C        12.2760011480        0.3694083979       -1.6254945854
  H        12.1895252973        2.5375084126       -2.2503127148
  C         5.9495574474        6.7929340256       19.7626449253
  N         6.0368612868        8.1201725613       20.0057165444
  O         6.3701426264        9.9915924342       18.7593605007
  H        15.6630159436        6.7543432532        7.6011939959
  H        14.8294230027        5.2752834579        7.4340576096
  C        16.9170732037        5.0316824751        7.4359502813
  H         5.4785098786        7.2946065055        0.8777592836
  H         4.0902482801        6.2555480260        1.2127500555
  C         4.2329140035        7.9547581796        2.4252147266
  C        12.5236745574       -0.3061949479       -2.8028187663
  S         5.4075585751        5.8665509161       21.0821446651
  C         5.8278679082        8.7747099326       21.2868885740
  H        16.7821306964        4.7030699893        8.4745891738
  H        16.9826499812        4.1546453344        6.7210982384
  C        18.2428447263        5.9072783033        7.4262727863
  H         4.9165519684        8.5579278448        2.9843400003
  H         3.5637877987        7.5608131325        3.2390513947
  C         3.4625572118        9.0234951494        1.6573973692
  H        12.0381540173       -1.2366487743       -2.8656750571
  C        13.0915517432        0.2041452919       -3.9779670816
  H         5.4952342610        8.2082505697       22.2050497315
  H         5.0021281194        9.4194261972       21.1250320749
  C         7.1167792176        9.5706934748       21.6647054755
  H        18.6504306978        5.6539920568        8.4056413548
  H        17.7965730903        6.7930312798        7.2782250243
  C        19.3590422119        5.7925627826        6.4258852287
  H         2.6770551175        8.6890661943        1.0806994861
  H         2.9477523417        9.5087142610        2.5111466906
  C         4.2280601602       10.0899389410        0.8855566329
  S        13.8908098294        1.7220898501       -4.1383924956
  C        13.3511706957       -0.7640528405       -5.0292035118
  H         6.9833268652       10.6776543336       21.5236991702
  H         8.0273305404        9.2812087060       21.1924839780
  H         7.2382541159        9.5135066676       22.7323286256
  H        20.2557554499        6.3763737692        6.7746048328
  H        19.6138390933        4.7727449809        6.2858378367
  H        18.8885267145        5.9684712458        5.5016173491
  H         4.0506712479       10.0617761195       -0.1612419849
  H         3.8945336322       11.0956357271        1.0788208269
  H         5.3178013310        9.9749000355        1.0627797985
  C        14.4179005215        1.1616631394       -5.7183199937
  N        14.2160236244       -0.2136229797       -5.9454728621
  O        12.8797376182       -1.9274619667       -5.0475865933
  S        15.0696088529        2.1941111050       -7.0222293271
  C        14.5830060918       -0.7710010502       -7.1649281709
  H        14.7448565119       -1.7682320742       -7.0134993527
  H        15.5053210767       -0.3267774576       -7.5502222633
  C        13.4321653276       -0.6661405177       -8.1588864465
  H        13.2314571939        0.3810092212       -8.2547532917
  H        12.5053452776       -1.0550007139       -7.8554531575
  H        13.7707487142       -1.0081374133       -9.1136274370
