352
 i =    16300, time =     8150.000, E =       109.6568761209
  H         9.8496293483        6.1637514122       31.5491128009
  C        10.8752576601        5.9893966680       31.7472210883
  H        11.1854270260        6.9679018778       32.0321774799
  C        11.6338012603        5.4787208366       30.4984391788
  C        10.9618158199        5.0227366559       32.8929570737
  C        10.8407152344        4.5662117841       29.5979477265
  H        12.0134098830        6.3372298873       29.9507202261
  H        12.5120246927        4.9538388469       30.9267506026
  H        11.9349348049        4.8301711533       33.3342168824
  H        10.3039671256        5.4652582742       33.6385646883
  H        10.6300493582        4.0493986822       32.6208542584
  C        10.0568193106        5.4107811805       28.6379694438
  H        10.1927940435        3.9849461274       30.1860869604
  H        11.5279086745        3.8301122623       29.0700359191
  C        10.6381431987        5.3712970251       27.1514506909
  H         9.0558294168        4.9239785095       28.5625081032
  H         9.7559920991        6.3411545897       28.9730211111
  C         9.5970746953        4.6208555058       26.3239167007
  H        11.5457909169        4.8464738298       27.2294184178
  H        10.7346886002        6.3552818325       26.7805999554
  C         8.4599938619        5.6001508462       25.8779667438
  H        10.0490914034        4.0619670320       25.4797269765
  H         9.1838374777        3.8569079045       26.8933502633
  C         7.2449184334        4.9965125260       25.1659724611
  H         8.0833510513        6.2107671443       26.7337594919
  H         8.9456414731        6.3352426917       25.1736630922
  C         6.8409529996        3.7044478215       25.9078914604
  C         7.6543314340        4.1915716665       24.0073380627
  C         6.0552744425        5.9473362692       24.9280127008
  C         7.0129053242        2.5354965758       25.1236929823
  C         6.3093012820        3.3778179493       27.1874855873
  C         7.5713667894        2.8399825347       23.9298865086
  C         8.0852106971        4.7549592820       22.8035457671
  H         6.3457171868        6.7065631728       24.2906670570
  H         5.7524280654        6.4731335304       25.8460717946
  C         4.8306303720        5.2360584050       24.3550884595
  S         6.5557008050        1.1250621444       25.9730797303
  C         6.2142451619        2.0385743348       27.3593917746
  H         6.1020137812        4.1128633877       27.9751040044
  C         7.9722280134        2.1550939168       22.8153001837
  H         8.1297330270        5.8249740690       22.7922065811
  C         8.4266802928        3.9876569661       21.7101371711
  H         5.1865931850        4.6958097403       23.5562676278
  H         4.4909181347        4.6201689898       25.1785592538
  C         3.5423593122        6.0110900445       24.0901290709
  C         5.9232142069        1.3665526672       28.6846652208
  C         8.4622416334        2.6678724151       21.6584221470
  H         8.0122584665        1.1063750766       22.9523542088
  C         8.8713485944        4.2885080082       20.4580373311
  H         2.8447729980        5.4651814266       23.4832760830
  H         3.8374008205        6.8679440066       23.4583740929
  C         2.7971876028        6.5922424839       25.3134583811
  C         5.9995755536       -0.0307329264       29.0242252707
  C         5.6614286850        2.2623128627       29.8896854009
  C         8.7845727251        1.9499277539       20.3870856178
  C         8.9902309028        3.2340278697       19.5844503661
  S         9.2243297077        5.7109077663       19.7605935496
  H         2.1168386274        7.2702695093       24.9210745783
  H         3.4269438313        7.2820317873       25.7727181828
  C         2.2349767301        5.6173665006       26.3502578179
  N         6.2092660539       -1.0687580256       28.0840672475
  C         5.6940860860       -0.5292085039       30.2761966781
  C         5.3504420582        1.7155651489       31.1315167210
  H         5.5632630602        3.3562392083       29.7838236060
  C         7.5282094134        1.1745078370       19.8169150445
  C        10.0443921688        1.1317358129       20.5332289335
  C         9.3742029304        3.6148493108       18.2970757277
  C         9.5884504496        4.9681747993       18.2695798954
  H         1.5227291873        4.8664783181       25.9313004390
  H         3.0446271830        5.0474239405       26.6291567969
  C         1.6745552302        6.3496579312       27.6066616629
  S         6.1636012692       -2.4734549089       28.9237947222
  N         5.7153438566       -1.9316306872       30.3257765356
  C         5.2267915685        0.2763810565       31.3601561602
  H         4.9648928437        2.3599200682       31.8519270746
  H         7.0299297194        0.4891358327       20.5302598619
  H         7.9378199692        0.5742821765       19.0581254987
  C         6.4085587978        1.9643712238       19.2084415198
  H        10.1924485183        0.4147690233       19.8007814956
  H         9.8975626035        0.4455474330       21.3751884083
  C        11.3739125138        1.8528074133       20.8378851915
  H         9.5289101817        2.8244172302       17.5600366241
  C        10.0705140041        5.7677159307       17.0816573468
  H         0.9956806079        7.0556601810       27.0914521099
  H         2.3747952748        6.9160637065       28.1301239881
  C         1.0528976538        5.3265141460       28.5485860549
  C         4.8932470496       -0.3873307173       32.5870843965
  H         6.7067862966        2.5807833330       18.3689419853
  H         6.0187636833        2.7181393875       19.9279000495
  C         5.1772777190        1.1147294842       18.8138282724
  H        11.2099330459        2.2303620287       21.8349084677
  H        11.5583293373        2.7424556490       20.2427385404
  C        12.5567567594        1.0149840717       20.8328806054
  C         9.9554319251        7.2259640025       16.9820496471
  C        10.2939679233        5.0140809429       15.8045059713
  H        -0.0937157155        5.3281723955       28.4120732767
  H         1.5343464462        4.2937570049       28.5172249707
  C         1.3196174325        5.8512995009       29.9922573811
  H         4.9286549776       -1.5394427195       32.5243112879
  C         4.6435374404        0.1889552891       33.7959182206
  H         4.9007361801        0.4176603754       19.5940417804
  H         5.5938465757        0.4833316527       18.0370909883
  C         4.0368940802        1.9551355870       18.2461181456
  H        12.4473369909        0.2838680825       21.5929428435
  H        12.7004339079        0.5598560722       19.8244935977
  C        13.8241770999        1.7882945821       21.1378119955
  N         9.8223510212        8.1474577542       18.0227306253
  C        10.2388255482        7.8448592746       15.7842720045
  C        10.4464453495        5.7033240463       14.6194696528
  H        10.4605486821        3.9068269668       15.8117917950
  H         1.1031616780        5.0712257040       30.6597688643
  H         2.1965317724        6.3094075654       30.4211289694
  H         0.5907398036        6.6224568970       30.2882185839
  S         4.4242657462        1.8188453449       34.2743831624
  C         4.4011636072       -0.7978759961       34.9497884480
  H         3.9241562614        2.9520225074       18.6576155997
  H         4.2175717325        2.1291244413       17.1832081923
  C         2.6208734291        1.4450372505       18.3590523421
  H        13.8615709456        2.8323349734       20.8893634232
  H        14.6518503668        1.2716840595       20.6653335022
  C        14.0938108641        1.9778050237       22.6458921028
  S         9.9648950817        9.6913811559       17.4237030002
  N        10.2561175173        9.2004682356       15.8739119659
  C        10.5809276793        7.1858092978       14.5554464817
  H        10.5310190720        5.0265926260       13.7333093456
  C         4.0037278509        1.2333600962       35.9083275182
  N         4.0661358128       -0.0990103007       36.0634552925
  O         4.5479379471       -2.0110520629       34.8977758932
  H         1.9129552137        2.3606229835       18.1064962219
  H         2.4724603672        1.2826841416       19.4457964498
  C         2.2846208153        0.1617526887       17.5453800655
  H        13.2509860413        2.4751685860       23.0791445014
  H        14.0145274106        0.9822892972       23.0780768433
  C        15.2902262800        2.9540056417       22.9701117981
  C        10.8093479844        7.9783992286       13.4238594558
  S         3.8077640936        2.2346784139       37.3366385287
  C         3.9916549757       -0.7703513959       37.3033024571
  H         1.1975814908        0.3034067283       17.1305580825
  H         2.8906463687        0.0199877707       16.6539275193
  C         2.3918197389       -1.0747096750       18.3745691074
  H        15.2446780525        3.3154111873       24.0236837442
  H        15.1944618341        3.8541995249       22.4378818789
  C        16.7662209500        2.3765500759       22.9054211882
  H        10.1672063012        8.7510449415       13.5172114389
  C        11.4306229011        7.6964619036       12.2169362618
  H         3.2525786627       -0.3127809094       37.9612072687
  H         3.5853593378       -1.8135192341       37.1746744989
  C         5.3778529340       -0.9286468701       37.8999011154
  H         1.7496762886       -0.8449714133       19.1460655920
  H         3.3998899216       -1.1827267989       18.8466030535
  C         1.8384523277       -2.3745499572       17.6561921664
  H        17.0300409524        2.2716721997       23.9978314027
  H        16.9290372455        1.3932942986       22.4276422789
  C        17.7538477279        3.2976921376       22.1519274135
  S        12.0383474911        6.1798817206       11.6580631306
  C        11.5600877738        8.7604358866       11.1853148129
  H         5.4916033870       -1.9023436087       38.4713613000
  H         6.2269297857       -0.7139806945       37.2271312330
  H         5.2718724563       -0.2273613376       38.7156108246
  H         1.1255281939       -2.9284544838       18.2835348518
  H         2.6690206721       -3.0187623035       17.2997353768
  H         1.3084915676       -2.1163457842       16.7517385125
  H        17.8228718888        3.1806842145       21.1095985383
  H        18.7325874883        3.0899970961       22.5312548665
  H        17.5032393443        4.3377560451       22.2089001934
  C        12.5418152556        6.9374815455       10.2029238486
  N        12.2659412420        8.3178614368       10.1117258799
  O        11.3266198907        9.9338669639       11.5088403156
  S        13.1745143916        6.0673816882        8.8100823876
  C        12.4674579988        9.0620065339        8.9079414000
  H        12.7100822929       10.0293329419        9.2689310189
  H        13.3906694877        8.6964735949        8.4764102339
  C        11.2841392008        8.9842031245        7.9352699036
  H        11.2212220958       10.0173416199        7.5323529961
  H        11.3487337459        8.2949518830        7.0375431081
  H        10.4052890560        8.6912854525        8.5170458314
  H         4.7087891428        1.1712807837       12.8230722868
  C         4.1247130506        2.1238483728       12.9028305279
  H         4.8761437038        2.9247525040       12.9983667455
  C         3.2733930500        2.3877362172       11.7545747708
  C         3.3778986382        2.1461965855       14.3185351360
  C         4.0813163816        2.6919723330       10.4947237668
  H         2.5077248533        3.2281416877       11.9337620947
  H         2.6273732619        1.5683174686       11.4864849993
  H         2.9241007090        1.1817589788       14.6483211326
  H         2.6576465880        2.9243057108       14.4084524053
  H         4.2011193852        2.1850672780       15.0868149112
  C         4.8601692584        1.4685553387        9.9084102054
  H         3.4155705869        3.1056892860        9.6273999526
  H         4.6026143894        3.6606130338       10.6555074347
  C         5.3160810807        1.7336360618        8.4429256792
  H         4.1128735025        0.7208643833        9.9035619198
  H         5.6516949109        1.1724736139       10.6118438843
  C         6.5696505654        2.6090399501        8.5449525890
  H         4.4927261600        2.1858597214        7.8982425456
  H         5.4788162610        0.7883145163        7.8823996810
  C         7.9537864258        1.9293508715        8.8925801231
  H         6.6932408282        3.1737148525        7.5652134300
  H         6.3295375630        3.3941543302        9.3200561368
  C         9.1974437869        2.8793749478        9.0881828870
  H         8.1326297933        1.3854977220        7.9678486304
  H         7.9421731183        1.1694194129        9.7415026865
  C         8.7590279761        4.1961309074        9.7348689424
  C         9.6342161473        3.6138440345        7.8744468469
  C        10.3678805584        2.1582956072        9.8865889998
  C         8.9657114009        5.3317456750        8.9597486088
  C         8.2158196506        4.4847115746       10.9693769583
  C         9.5717296118        4.9773655787        7.7574931558
  C        10.1256635340        3.0067332846        6.7133800009
  H         9.9714963686        1.7128770938       10.7898493534
  H        10.7033020517        1.2623206098        9.3177539838
  C        11.6578769787        2.9442693847       10.1986119918
  S         8.3940748420        6.7463337416        9.7275267849
  C         8.0735878727        5.8029662311       11.1749245571
  H         7.9963353412        3.6783166263       11.6453052911
  C         9.9774642071        5.5940098088        6.6028929775
  H        10.3434964985        1.9613665151        6.7096040382
  C        10.4108387431        3.6291067216        5.5130560879
  H        11.2500872626        3.7851548066       10.7718677652
  H        12.0969648581        3.2842775148        9.2378936125
  C        12.8512195672        2.3392725973       10.9687384331
  C         7.7006571735        6.5018607198       12.4221492084
  C        10.4193671891        4.9745973562        5.4289556461
  H         9.8484221666        6.6758217528        6.4851751029
  C        10.8769317723        3.3004832698        4.2827203782
  H        13.6608817435        3.0443184374       10.9010020418
  H        13.1541511169        1.3930178687       10.5066243000
  C        12.5156042309        1.8070232821       12.3365029187
  C         7.6200358508        7.9154374264       12.6387712225
  C         7.3272690787        5.6162710054       13.6352309024
  C        10.8650652656        5.7148864604        4.1636966772
  C        11.1383141819        4.3872297578        3.4847112108
  S        11.1388192501        1.7466608688        3.5115099623
  H        11.9862301783        2.6011471965       12.7538984630
  H        11.7985023253        0.9819221399       12.2449504725
  C        13.7231648575        1.5190384680       13.2755079581
  N         7.8806810351        8.9344918815       11.6893651547
  C         7.2248683729        8.4395420346       13.8726825273
  C         7.0367782013        6.1475909044       14.8722173128
  H         7.2593607994        4.5656543129       13.5196225070
  C        12.1381750296        6.6584362988        4.3019736318
  C         9.7134162532        6.3289310083        3.3685377656
  C        11.4757236257        3.9281487279        2.1706555123
  C        11.4556392781        2.5825705534        2.0275678474
  H        14.4145034878        2.3226241282       13.3383988173
  H        14.3300209961        0.7206241991       12.9842014756
  C        13.2976277587        1.2822418271       14.7059312266
  S         7.7685025571       10.4035739740       12.4583566425
  N         7.2712858257        9.8489877052       13.8901966078
  C         7.0251635699        7.6701668201       15.0405782378
  H         6.5762307861        5.5328022871       15.6455306541
  H        11.8628269128        7.2849644757        5.1639589828
  H        12.1334855516        7.2354976911        3.4388841722
  C        13.3934276035        5.8339604140        4.5270934254
  H         9.4113195071        7.2822178810        3.8515777130
  H        10.2325164264        6.6720743699        2.4788227284
  C         8.4704107854        5.4620729049        2.9627050527
  H        11.6457479036        4.7393852255        1.4116182057
  C        11.8680803448        1.7665725878        0.7761479123
  H        12.4012997683        0.6680362597       14.6851598181
  H        13.9660372019        0.5531011623       15.2457902685
  C        13.1459475596        2.4914364131       15.5719577383
  C         6.7870836435        8.3936612389       16.3040552521
  H        13.1272386291        5.0354463609        5.1643427383
  H        13.7204915623        5.4196221506        3.5796148897
  C        14.4751548372        6.8464066281        5.0938676690
  H         8.2365854997        4.6633248229        3.7000556008
  H         8.7548473405        4.9558794873        2.0618187614
  C         7.1381636223        6.2345369654        2.7361723609
  C        11.8280221599        0.4057633246        0.6224373232
  C        12.0794690878        2.6025051940       -0.4463819499
  H        12.4151027013        3.1198451841       15.0716650775
  H        14.0593163118        3.0363770241       15.6527643490
  C        12.7244338387        2.1719949849       17.0073457027
  H         6.7993234491        9.4539901921       16.3430876961
  C         6.5535336971        7.8547541362       17.5820552720
  H        14.1381104649        7.2599098764        5.9938654649
  H        14.5092222812        7.6914829888        4.4325881455
  C        15.8455167422        6.3181466753        5.2460832449
  H         6.9374784098        6.7612785788        3.6389574517
  H         7.1718023422        6.9323322396        1.9274793072
  C         5.9151470818        5.3183791667        2.6599460570
  N        11.6092505306       -0.5663575347        1.5301486022
  C        12.1931417065       -0.1636206363       -0.5669875917
  C        12.3494409017        1.9762716435       -1.6697492059
  H        11.8225488817        3.6688651214       -0.4100144568
  H        12.2126165070        1.1922939323       17.0959874167
  H        12.0522574554        2.9467949999       17.3319936204
  H        13.5920982508        2.2551518024       17.6311650365
  S         6.3010517265        6.2958444973       18.0205942235
  C         6.3496580960        8.8360164231       18.6906695645
  H        16.1458976633        5.7818261214        4.3250950761
  H        16.4305555623        7.2720503798        5.0786386953
  C        16.1475582918        5.2975167354        6.3593501480
  H         5.4938190650        5.3586651656        3.6325933243
  H         6.0945493763        4.3345371318        2.4490270927
  C         4.9269782271        5.7931127916        1.6213977023
  S        11.9315464043       -2.0450169688        0.9717674163
  N        12.3202018198       -1.5320375576       -0.5295917263
  C        12.3724134376        0.4767968580       -1.8150565900
  H        12.4087436887        2.5871525857       -2.5368735461
  C         5.9189815788        6.8746550955       19.6233661688
  N         5.9490896365        8.2117769914       19.8060529589
  O         6.5401826335       10.0363593079       18.5828258616
  H        15.8198184935        5.7160409699        7.3225893001
  H        15.6180634933        4.3820778360        6.3252859825
  C        17.6208045025        5.0507132483        6.5113284299
  H         5.4641964147        5.8997774381        0.6972370183
  H         4.2520372820        4.9950118897        1.5426722498
  C         4.1626748238        7.0487292385        2.1975211606
  C        12.6720928791       -0.2497617751       -3.0024917441
  S         5.3199247544        5.8158078270       20.9891715298
  C         5.6555808176        9.0050580447       21.0869621955
  H        17.7818361275        4.1767142597        7.1471722516
  H        17.9575228020        4.6827485374        5.5311282763
  C        18.6045537673        6.1591415808        6.9464322850
  H         4.7242546955        7.4099957815        3.1208133820
  H         3.1546113253        6.8424842159        2.5925486061
  C         3.9402472733        8.1064130616        1.1569659529
  H        12.2848726809       -1.2707863220       -3.0988412196
  C        13.1763706231        0.0848006098       -4.1523078654
  H         4.9337232144        8.4745780366       21.7152860309
  H         5.2809471160        9.9590362484       20.7239704675
  C         6.9078468270        9.0303437206       21.9689048104
  H        18.8336892981        6.0896367171        8.0183112509
  H        18.2398599150        7.2028518874        6.6462557713
  C        19.9922465948        5.8719645006        6.3824478291
  H         4.2589668630        7.7838623798        0.2204054481
  H         2.9002588373        8.2612628617        0.9633996178
  C         4.5940028008        9.3774200542        1.5595832545
  S        13.8171226393        1.6429645593       -4.5345642688
  C        13.2613921669       -0.9046105673       -5.2314675381
  H         7.9525988861        9.2240793729       21.6028576663
  H         6.8735929167        8.2022739215       22.6765073922
  H         6.7130859062        9.9576786552       22.4177538686
  H        20.5213466177        5.2761600944        7.1198227628
  H        19.9025511731        5.3150389043        5.4337999530
  H        20.4680806832        6.7469518499        6.0447951407
  H         4.3879800469        9.6475042111        2.5467221182
  H         5.6467253958        9.3669423982        1.2985583776
  H         4.0696311719       10.0051299300        0.7931871319
  C        14.1749138217        0.9305565681       -6.1010500115
  N        13.9233873649       -0.3937263545       -6.2674121117
  O        12.8643075150       -2.0810518990       -5.1102879222
  S        14.8406631415        1.8335368462       -7.4338101896
  C        14.0902061919       -1.0870344568       -7.5021035936
  H        14.2257354424       -2.1445590797       -7.1830833617
  H        15.0892590020       -0.9092096967       -7.9408064344
  C        12.9336472595       -0.8713643874       -8.4414040811
  H        12.0821931604       -0.5456999495       -7.8802262339
  H        12.5960275542       -1.8673735214       -8.8827097677
  H        13.0888383183       -0.1703115611       -9.2196048298
