352
 i =   123000, time =    61500.000, E =        98.7194121185
  H        10.5613588196        7.8840123996       31.7137013600
  C        11.3710308510        7.2016762275       31.9894985680
  H        11.9475823608        7.9734533966       32.5345253567
  C        12.0592861904        6.5391289612       30.7275678697
  C        10.7362087107        6.1658000069       32.8673310288
  C        11.0082454244        5.7505686388       29.8974554816
  H        12.6381833823        7.2287368613       30.1395533407
  H        12.7217271702        5.8559702144       31.2095683296
  H        11.3228124655        5.3087805880       32.9820479524
  H        10.5508145248        6.5493169677       33.8529882150
  H         9.8069536228        5.7988615617       32.5147552262
  C        11.5673434875        5.3761833705       28.4525931376
  H        10.2331659613        6.4524273876       29.7035764652
  H        10.5121412755        4.8934206377       30.4088168244
  C        10.7914873998        5.9527668999       27.3423205000
  H        12.5491951411        5.8788499117       28.4455862823
  H        11.7435833627        4.2780588276       28.4360836398
  C         9.3853596243        5.3343515635       27.1362624179
  H        11.2735415916        5.7493190146       26.4491013396
  H        10.6982329446        7.0471228731       27.4295860932
  C         8.3806964761        6.2127161893       26.3266285423
  H         9.5427572223        4.3854387203       26.5763370428
  H         8.9345404859        5.0943743253       28.1013138735
  C         7.2529563752        5.3798252469       25.5810447008
  H         7.9335053959        6.9666641123       26.9432495692
  H         9.0364593429        6.6478150691       25.5605873511
  C         6.9131027103        4.1004088368       26.3238719309
  C         7.6841667767        4.6835793041       24.3123534134
  C         5.9863204101        6.2972902055       25.4802538718
  C         7.1870356486        2.9638299129       25.5514662431
  C         6.4436246629        3.7287989973       27.5795007651
  C         7.7748903270        3.3550077930       24.3156424709
  C         8.1886677451        5.3081514702       23.1034404202
  H         6.2749140000        7.0810194588       24.7405887779
  H         5.6449710153        6.6289728087       26.4393573827
  C         4.8309041241        5.5798524587       24.7961084428
  S         6.8661001729        1.4642176835       26.2757204679
  C         6.2223829380        2.3965479048       27.6751601835
  H         6.1790529830        4.5009269505       28.2918679163
  C         8.2754318052        2.6756342293       23.1747342992
  H         8.1714871949        6.3375007705       23.1541940673
  C         8.6328601734        4.6659615705       21.9541961157
  H         5.0998496385        5.2897146361       23.7977544142
  H         4.6621779331        4.6720931385       25.3428658062
  C         3.4948981857        6.3442843042       24.8657861881
  C         5.7057799495        1.7248232145       28.9344165590
  C         8.5863074243        3.3009844090       21.9637194458
  H         8.3153921042        1.6312756472       23.1711528595
  C         9.0454166177        5.0801527783       20.7181543082
  H         2.6648427988        6.0165650882       24.3121187924
  H         3.5588159115        7.4278290423       24.6272417791
  C         2.9494592005        6.2588078617       26.2961123205
  C         5.6721038028        0.3373135461       29.1938362404
  C         5.2435480146        2.5536442471       30.0855593212
  C         9.0011826299        2.6073675949       20.6302386524
  C         9.1350754747        3.9682784389       19.8944033101
  S         9.1721652196        6.6425200461       19.9804794500
  H         1.9333271810        6.7329553050       26.2680512970
  H         3.4944951125        6.8579144335       27.0188954030
  C         2.7198810407        4.8722702958       26.7561852109
  N         6.0338598621       -0.5602922410       28.2273366933
  C         5.4858247921       -0.2517787286       30.3919330995
  C         4.9255760344        1.9570814210       31.3141309887
  H         5.1170773830        3.6344040047       30.0876083383
  C         7.8744156609        1.5962884418       20.1754747050
  C        10.4004699251        1.9437732174       20.5984114434
  C         9.4602388308        4.4139761274       18.6000372799
  C         9.4584885677        5.7991687323       18.4841620501
  H         2.5839145141        4.1508873478       25.8844168436
  H         3.6475911537        4.6057828104       27.2612850873
  C         1.5311198956        4.7278846229       27.6804247359
  S         6.0785028423       -2.0342933997       28.9214141661
  N         5.6324725177       -1.6406953589       30.4423522458
  C         5.0736690005        0.5041276933       31.5723021847
  H         4.5137992264        2.6388424412       32.1148309563
  H         7.9037412050        0.7448416942       20.8749047588
  H         8.1193788510        1.2262136170       19.2187598379
  C         6.4303331194        2.1529403262       20.3666414577
  H        10.6788016024        1.6153593608       19.5524127718
  H        10.3703822736        0.9977291655       21.2055961567
  C        11.5904791483        2.8217865451       21.1708337526
  H         9.6139622170        3.7321943415       17.7211887917
  C         9.8130482106        6.5212327875       17.2491879086
  H         1.6599290880        3.8152305201       28.2229253596
  H         0.6302506542        4.7956015982       27.1103951412
  C         1.5827237435        5.6824627046       28.8098185111
  C         4.8512032497       -0.1740669839       32.8027548128
  H         6.4777058627        3.2079763732       20.1341996452
  H         6.1437932668        2.0988127157       21.4534790755
  C         5.3916385629        1.5273741495       19.3927040334
  H        11.4681655678        3.2435348921       22.1724482762
  H        11.6793295698        3.6741306951       20.5068202279
  C        12.8112445781        1.9937384244       21.1646826769
  C         9.9474596918        7.9260125928       17.0549986324
  C        10.0646540105        5.7268330257       16.0333216634
  H         1.7200519513        6.7008267782       28.4250382350
  H         0.5934859277        5.6005412395       29.2176369996
  C         2.7217816807        5.4649752293       29.8063029750
  H         4.8892314460       -1.2376970843       32.8096251177
  C         4.6464454733        0.2477517858       34.0890638168
  H         4.7165796173        1.0825108214       20.0465441370
  H         5.9091575542        0.7843660131       18.8264264402
  C         4.6489961139        2.3385593315       18.3680425756
  H        12.6647161178        1.1931269661       21.9650176178
  H        12.9654418680        1.5407505869       20.2177427019
  C        14.0274191371        2.8837382426       21.6391184910
  N         9.6949628887        8.8716658789       18.0051751591
  C        10.3574015703        8.4918168351       15.8577479831
  C        10.6334774815        6.2608157852       14.9118293436
  H         9.9624364110        4.6264777498       16.0725020609
  H         2.4385098859        5.5050710322       30.8606581488
  H         3.0613784349        4.4239993988       29.7796314887
  H         3.5038111204        6.2690776191       29.7582813757
  S         4.5149461918        1.8613736782       34.7641377311
  C         4.5915939769       -0.8400280370       35.0799258206
  H         4.7650460774        3.4018422780       18.5470479563
  H         5.1745080948        2.1312148576       17.4060533573
  C         3.1745107784        1.8811649069       18.3666923093
  H        13.8070951201        3.3893571320       22.6075202912
  H        14.3637034792        3.5377918944       20.8509979526
  C        15.2525715592        2.0062806284       21.8189302180
  S        10.0480377750       10.3598771433       17.4274887798
  N        10.3313072903        9.9237745861       15.8438686309
  C        10.7228600252        7.7332160133       14.6874412287
  H        10.9485683105        5.6877871284       14.0641463372
  C         4.2477231851        1.0399846088       36.2942408564
  N         4.3528124692       -0.3054575292       36.2927716581
  O         4.5717373857       -2.0657868682       34.8435946851
  H         2.7090994463        2.5594958316       17.6630742615
  H         2.6878727157        2.1352386095       19.2579249319
  C         2.9212753638        0.4130394551       17.9984830070
  H        14.9871603733        1.3365300475       22.5949919093
  H        15.4648967181        1.3755753533       20.9441379142
  C        16.4762187004        2.8591139268       22.0045703616
  C        11.0978694816        8.3895625562       13.5099487592
  S         4.0066430563        1.9603899686       37.7881654481
  C         4.2508535352       -1.0793574501       37.4482314570
  H         2.2869446977        0.4845440625       17.1430504131
  H         3.8348285315       -0.1384582478       17.7074732809
  C         2.1042483764       -0.3787337421       18.9338865789
  H        16.1487695697        3.7004875160       22.7224018674
  H        16.7984883631        3.4442997911       21.1666216345
  C        17.5598864738        2.1688235466       22.6849035335
  H        10.8749848447        9.4514659754       13.4723805352
  C        11.6510249953        8.0401700366       12.2851798737
  H         3.6759905636       -0.5237795374       38.1924910894
  H         3.6867544014       -2.0030263749       37.3521677986
  C         5.6127922136       -1.3076461119       38.1939892269
  H         1.1292545352       -0.0053251890       19.1744965714
  H         2.5128546684       -0.5140910787       19.8888705534
  C         1.9290458097       -1.7530049673       18.3508888167
  H        17.5800891998        1.1505758570       22.3172719408
  H        18.4811017945        2.5777582159       22.3726039239
  C        17.3687560814        2.0481401804       24.2355114112
  S        12.2493592781        6.5386798864       11.7729330805
  C        11.5748121543        9.1003838739       11.2333330566
  H         5.4453463838       -0.9929957334       39.2450169040
  H         5.9537862890       -2.3334054998       38.0560731399
  H         6.3713708883       -0.6021510694       37.8019412538
  H         2.7278670040       -2.5276379925       18.4247588798
  H         1.4678560846       -1.8207752098       17.3579785048
  H         1.2708272794       -2.1382705706       19.1105243228
  H        16.9005947700        1.0915475856       24.4706562963
  H        16.8350742263        2.8926105738       24.6644240195
  H        18.3511402053        1.8561943721       24.7264683978
  C        12.4435834616        7.3586628130       10.1871991279
  N        12.2881827103        8.6863642494       10.1575005833
  O        11.2672904442       10.2816827765       11.4434452126
  S        13.3912360261        6.5743937026        8.8757809423
  C        12.5446294569        9.6370161482        9.0262036303
  H        12.7930002335       10.5948138441        9.5395822945
  H        13.5561997132        9.4176729952        8.5255520258
  C        11.3982902528        9.5806841903        8.1213938249
  H        11.7197605872       10.0888902082        7.2239703631
  H        11.2020939569        8.5103260729        7.8048663754
  H        10.4511232500        9.9331872764        8.5135174087
  H         3.4230654222        3.1958914518       12.4518203918
  C         3.7457039733        2.0985696300       12.4412793676
  H         3.1850481734        1.5330272757       13.2173483626
  C         3.4236908853        1.4509303333       11.1044528796
  C         5.2789155022        1.9546233876       12.7673738271
  C         4.0249747172        2.0725738874        9.8716318643
  H         2.3380055637        1.4252872764       10.9129857536
  H         3.5965441546        0.3365624272       11.1112983688
  H         5.7036224583        2.9153829402       13.0928395967
  H         5.7812087952        1.6235990968       11.9448459100
  H         5.3109849238        1.2547760463       13.5936883029
  C         4.9336163700        1.1814919796        9.0328208888
  H         3.3080851303        2.7113046538        9.4179060361
  H         4.7752174696        2.7999136075       10.2059055563
  C         5.6226414125        1.7695126868        7.8450132474
  H         4.4739401688        0.2510570041        8.8003680009
  H         5.6497766150        0.7802066114        9.7186139347
  C         6.8154586258        2.6063247180        8.2444381947
  H         4.9077250309        2.2771804893        7.2508842310
  H         5.8268648789        0.9375694888        7.0678991085
  C         8.0090369559        1.8407136693        8.8104933795
  H         7.0290096200        3.3273514196        7.4053050607
  H         6.4559148693        3.2269665932        9.0518300138
  C         9.2103500781        2.8021391973        9.0747032979
  H         8.4672280649        1.1544755420        8.1189338322
  H         7.7073737489        1.3732217279        9.6812101314
  C         8.7675030498        4.1076690062        9.7623178386
  C         9.6261730629        3.5303235645        7.8004279994
  C        10.3177628628        2.1228324487        9.9382051641
  C         9.0937253482        5.2374055813        9.0303924616
  C         8.1273541702        4.4134546543       11.0168942245
  C         9.6393002808        4.8930479581        7.7762258984
  C        10.1174410769        2.9000846945        6.6239441484
  H         9.8765353286        1.8219726397       10.8710275657
  H        10.6744052590        1.2327008082        9.4160201517
  C        11.5076607914        3.1502305457       10.2385717467
  S         8.6514837212        6.6850866078        9.7191528198
  C         8.1036271454        5.8040079146       11.1269970906
  H         7.9427460166        3.6153833500       11.7681279905
  C         9.9962810588        5.5400366194        6.6166861205
  H        10.1280457614        1.8375147864        6.6042084660
  C        10.4755958551        3.6002384700        5.4831638607
  H        11.0530400205        4.0581341692       10.6571534205
  H        11.9409057536        3.3084844199        9.2212721140
  C        12.5176024575        2.5721500799       11.2718244734
  C         7.7100473899        6.4802569945       12.4722293914
  C        10.4549450284        5.0093080696        5.4578192122
  H         9.9491326943        6.5887911434        6.6227361545
  C        10.9050517182        3.2183663226        4.2564847061
  H        13.3090626149        3.3037652232       11.3383005641
  H        12.9040173959        1.6336515173       10.9379268063
  C        11.9490164177        2.3770026070       12.7069114975
  C         7.6628433778        7.8855760042       12.7367006569
  C         7.4648637720        5.6724087382       13.7123823826
  C        10.8070811890        5.7319810695        4.1802546154
  C        11.0873371005        4.3657491292        3.4635317455
  S        11.0924770538        1.7246655213        3.4646605658
  H        11.2606901920        3.2807555064       12.8673646333
  H        11.1869665048        1.5881964112       12.8812578624
  C        12.9923714736        2.4608867396       13.7547078857
  N         8.0604541808        8.8885983066       11.8637968273
  C         7.3186387319        8.4057654038       13.9890706775
  C         7.0175162836        6.2275731808       14.9163039970
  H         7.5955456314        4.5858783834       13.6168690235
  C        12.1080464207        6.5622695594        4.3299498524
  C         9.7149384575        6.4904872145        3.4867327264
  C        11.3410425184        3.9746865259        2.1344345435
  C        11.4651842318        2.5970993864        2.0436084087
  H        13.6478565377        3.2188969162       13.5613009002
  H        13.5901665395        1.5527835156       13.7858002598
  C        12.3060973434        2.7507358973       15.0487095678
  S         7.8854201485       10.3445783342       12.6046182553
  N         7.4599208737        9.7593792961       14.0225211238
  C         7.0630921583        7.6906071180       15.1718828094
  H         6.8386189090        5.5552906706       15.7064588641
  H        12.0585888702        7.3716280033        5.1264810448
  H        12.2873421692        7.0452655820        3.4037898629
  C        13.2934232616        5.6189331574        4.7381935878
  H         9.4168530385        7.3186581256        4.1243855440
  H         9.9537861406        6.9675362193        2.5502732380
  C         8.4921857676        5.5694550425        3.1665365840
  H        11.4379678329        4.7144683792        1.3496962836
  C        11.8250643610        1.8321582487        0.7680550070
  H        12.1077287631        3.8137360291       15.2038688887
  H        11.3997550494        2.1621647637       15.0500931786
  C        13.2538382264        2.5266896669       16.2140451458
  C         6.7804086188        8.3272800876       16.4309796733
  H        13.0370102159        5.0878890607        5.6180614407
  H        13.4985583341        4.7390737153        4.1025157266
  C        14.5598981424        6.3282544727        5.0437399331
  H         8.2186454216        4.9095391380        4.0216583885
  H         8.6689554359        4.9815654755        2.2620179570
  C         7.2719905891        6.3519590050        2.6990257457
  C        12.0021847423        0.4062476911        0.6830961947
  C        11.8756304044        2.6226657624       -0.5245126561
  H        14.1104242816        3.2485093919       16.2103481975
  H        13.7889180886        1.5844379833       16.1378055570
  C        12.4742362427        2.6553784826       17.4881002569
  H         6.9681856262        9.3622282682       16.3863398558
  C         6.3856123235        7.9351255911       17.6582668193
  H        14.4664541754        7.0656079011        5.8473437876
  H        14.8112830894        6.8175557999        4.1499284768
  C        15.6851372547        5.3372477187        5.3672067360
  H         7.0143982402        7.1749181030        3.3633355228
  H         7.4470408846        6.8480863483        1.6424540495
  C         5.9462883957        5.5117000342        2.5056116220
  N        11.7958376403       -0.5323402238        1.6688742722
  C        12.2668160437       -0.1223721649       -0.5330544245
  C        12.3086478314        2.0366801158       -1.6995723782
  H        11.6697244968        3.7477878484       -0.5429334798
  H        11.4713902575        2.3120909973       17.5056038963
  H        12.4316853434        3.7303236889       17.7710218725
  H        12.9162286261        2.0813384600       18.3010742586
  S         6.0188137431        6.3282433768       18.1818387607
  C         6.2859550419        8.9389227590       18.7367097287
  H        15.0954362936        4.6428612950        6.0073627169
  H        16.0262932221        4.7458171573        4.5125224022
  C        16.9114910109        5.9843489957        6.1457589974
  H         5.3643225049        5.6746240675        3.4163378829
  H         6.0205611056        4.4634240298        2.4057319478
  C         5.0206504994        6.0086293730        1.4089299119
  S        12.1201990753       -2.0521763420        1.0208673930
  N        12.1696710498       -1.5071220591       -0.5444341752
  C        12.3980963021        0.5769865544       -1.7615441644
  H        12.3484109968        2.6747748072       -2.5474768039
  C         5.7663329782        7.0080915781       19.7858981394
  N         6.0090560770        8.2964707170       19.8847697788
  O         6.5934153472       10.1541245179       18.5983368870
  H        17.6660373898        6.1960296090        5.3666274421
  H        16.7156829559        6.9665079211        6.5753775937
  C        17.6326467509        5.0874160843        7.1895190896
  H         5.5190641695        5.9896095634        0.4535725923
  H         4.1809665593        5.3561874617        1.4186118593
  C         4.5651017257        7.4809161147        1.6804162550
  C        12.6791997962       -0.2096825710       -2.9058845881
  S         5.4468369162        6.0580191481       21.2455332435
  C         5.9278372736        8.9737191757       21.1605925527
  H        16.9110081211        4.7499928287        7.9782423343
  H        17.9518421963        4.1195083405        6.7730805823
  C        18.7790246525        5.8668384891        7.9278647162
  H         5.0471217273        7.8475017233        2.5358959973
  H         3.4829680654        7.3842446144        2.0098285510
  C         4.7213340912        8.3398957445        0.3740540234
  H        12.2774704393       -1.2298608982       -2.8770512641
  C        13.3559654260        0.1197773429       -4.0720785041
  H         5.0728386254        8.6624822754       21.8380630571
  H         5.8835345503       10.0405235465       21.0014866577
  C         7.3016491225        8.8016991696       21.9197639971
  H        19.0846621996        5.3829211908        8.8347560013
  H        18.4165114849        6.8241726269        8.2456773865
  C        20.0705294651        6.1410035127        7.1639801545
  H         5.7307190768        8.3170983601        0.0351933302
  H         4.0561583961        7.7722123371       -0.2769359096
  C         4.1846538985        9.8187799945        0.5764611504
  S        14.2783127843        1.5459804946       -4.3580956373
  C        13.3443517215       -0.8763239060       -5.1709670759
  H         8.2777242057        8.9531569142       21.4072100162
  H         7.2428948636        7.7944804502       22.2865142858
  H         7.2027485910        9.5290692995       22.6905792269
  H        19.9451178308        6.7636662326        6.2405530755
  H        20.7953672243        6.5555369008        7.8397279843
  H        20.5243750519        5.2308640456        6.8429580008
  H         3.9976130899       10.2028606511        1.6000643331
  H         4.8482865756       10.5204004344        0.1470818303
  H         3.2499675971        9.9122238577        0.0244586502
  C        14.4645010020        0.8388013764       -6.0015740470
  N        14.1275483199       -0.4546026890       -6.1597305122
  O        12.6838528469       -1.8903519246       -5.1514434472
  S        15.3674927745        1.7558388257       -7.3070433468
  C        14.3096891201       -1.1768498778       -7.4176364886
  H        14.2669129596       -2.1892117540       -7.0179752243
  H        15.3377962127       -0.9911094905       -7.6936938101
  C        13.2681788766       -0.9097435695       -8.4835771209
  H        12.7920115152       -1.8544002587       -8.7114795803
  H        13.6526020568       -0.6284733197       -9.4451742005
  H        12.5917040037       -0.1336502392       -8.2058183915
