352
 i =   104600, time =    52300.000, E =       100.0586932652
  H        10.3417120509        4.1329619268       31.2759425688
  C        10.5557513507        5.0422167403       31.8274550955
  H         9.6195598258        5.5918642415       31.7077483537
  C        11.7819262707        5.7013848992       31.1268724612
  C        10.8953993901        4.8047815843       33.3133022575
  C        11.6160594395        5.8555114125       29.6274161149
  H        12.0394732728        6.6873237198       31.5611889614
  H        12.6091975629        5.0449528978       31.3107056523
  H        10.5330649515        5.5399731557       33.9394683415
  H        10.4728273101        3.8488759821       33.6278608262
  H        11.9776081111        4.7436912162       33.4083836835
  C        11.2853713503        4.6482106943       28.6666215592
  H        12.4856007614        6.3997992114       29.3302264072
  H        10.8376604164        6.5750968203       29.4570681166
  C        11.4486412850        5.0753747278       27.2444998403
  H        11.9918093077        3.8680116273       28.8288544997
  H        10.1905454329        4.3258633412       28.8363963244
  C        10.3448474802        4.7124310914       26.2403193322
  H        12.4532280498        4.7012101563       26.8919488957
  H        11.6567804766        6.0927980066       27.1735515123
  C         9.1102674445        5.6079510827       26.2152038623
  H        10.7143801443        4.4877961779       25.2558067769
  H        10.1078738599        3.7458782998       26.6309591205
  C         7.8653841171        4.9377599352       25.6087339700
  H         8.8966921172        5.8362389175       27.2321311697
  H         9.2645592459        6.4941684923       25.6418523473
  C         7.4996477178        3.5925598172       26.2263072770
  C         8.2744657339        4.3146520970       24.3139936140
  C         6.7339890529        5.9617844123       25.5068167066
  C         7.7091235571        2.5277792370       25.3490963737
  C         7.0414655793        3.1477349216       27.4642535117
  C         8.1999844021        2.9645067368       24.1179316977
  C         8.6643009412        5.0235566413       23.1348996991
  H         6.9089023104        6.7258906632       24.7245248466
  H         6.5474671782        6.4985697744       26.3840298082
  C         5.4399190305        5.2265935939       24.9542362887
  S         7.4775774496        0.9909179128       26.0713422293
  C         6.9682907621        1.7877884464       27.5344803665
  H         6.8145562191        3.8661855223       28.2146470765
  C         8.6126382157        2.4301258144       22.9381006264
  H         8.6895861159        6.0724408568       23.2348500392
  C         9.0629496339        4.4648145846       21.9798579356
  H         5.6194748957        4.6872398440       24.0205624824
  H         5.0527344422        4.4775761288       25.5960448377
  C         4.2757940920        6.1916598631       24.7319979672
  C         6.4425346299        0.9279060125       28.6557923833
  C         9.0997991424        3.1173916636       21.8350810145
  H         8.5808245020        1.3518515011       22.8634231906
  C         9.4607415618        4.8781019878       20.7078544251
  H         3.6203266223        5.8983070408       23.8695879305
  H         4.5846027685        7.1499972768       24.4779324351
  C         3.3249691163        6.4374455035       25.8800629006
  C         6.4262768178       -0.5139709267       28.7643606481
  C         5.9181496158        1.5792484040       29.8734462735
  C         9.5021612253        2.4391890042       20.5375254560
  C         9.7413132157        3.8452779879       19.8520967748
  S         9.7453550213        6.3818667703       19.9491582166
  H         2.7607835602        7.3305833828       25.5855452244
  H         3.8697734647        6.7236604482       26.7024314465
  C         2.4635168727        5.1776806908       26.1864342662
  N         6.8074954543       -1.3809823790       27.7852060839
  C         6.1404749904       -1.2079351694       29.9550928691
  C         5.5577537556        0.9318233561       31.0253978817
  H         5.7869418065        2.6402984207       29.9554560884
  C         8.3058042535        1.6469584592       19.8825241202
  C        10.8242421812        1.6683433669       20.6633185314
  C        10.2346981523        4.2229695005       18.6297392866
  C        10.1403171562        5.5797370462       18.4484689732
  H         1.6249806250        5.2118161747       25.4085668429
  H         2.9249082629        4.2386293174       26.0038504121
  C         1.8590060906        5.2575565226       27.6175849677
  S         6.8130634450       -2.9180313194       28.3869318630
  N         6.3567634163       -2.5955461391       29.8906812401
  C         5.6985112074       -0.5698864584       31.1421714870
  H         5.3147713862        1.4874143212       31.8240817375
  H         7.6499718762        0.9877297795       20.5289357531
  H         8.6458467478        0.9517262641       19.0961469432
  C         7.3157821359        2.5651009491       19.2880276168
  H        11.0621615162        1.2639307636       19.6308761080
  H        10.5941093597        0.8618400603       21.3764175772
  C        12.0266963299        2.5231891283       21.2161576654
  H        10.6585443528        3.4841141080       17.9062796448
  C        10.4259829258        6.3203068661       17.2106800076
  H         1.1561424601        4.3623723098       27.7445192235
  H         1.4911926939        6.2758811705       27.6909396566
  C         2.9107696712        5.0258000835       28.7196068117
  C         5.3133590043       -1.3720130052       32.2547522462
  H         7.5630167206        3.0208330119       18.3656754369
  H         6.7038527236        3.3261479511       19.9358216532
  C         6.2378806788        1.6158991293       18.7878555008
  H        11.7506160671        3.0929948260       22.1137152675
  H        12.1387172438        3.3531423462       20.4979819015
  C        13.3403428921        1.6822951397       21.3688445569
  C        10.3591899513        7.7150539199       17.0393728751
  C        10.5328746662        5.5753353072       15.9384925978
  H         3.2677567841        4.0408728701       28.5485338930
  H         3.7335747112        5.7424004759       28.5638736805
  C         2.3948513018        5.2319528757       30.1551401451
  H         5.6093761781       -2.4220084002       32.1135125148
  C         4.9851906136       -0.9685556259       33.5843677069
  H         5.8402709142        0.9306782319       19.5897196260
  H         6.7429578962        0.9544927740       18.0968190492
  C         5.0269547746        2.2809955573       18.0895157230
  H        13.2917756842        0.9420358876       22.1625844428
  H        13.4926690712        0.9952693944       20.4526356371
  C        14.5001531684        2.6325413246       21.6775976829
  N         9.9532736920        8.6504377645       18.0367449366
  C        10.6005987980        8.4129812724       15.8347452978
  C        10.7395316418        6.2567781466       14.7343107420
  H        10.4686297335        4.4904671314       15.9805788064
  H         3.2265868284        5.2152521209       30.8222173220
  H         1.9212279542        6.2352698193       30.2352494921
  H         1.7556670439        4.4158587930       30.3351552606
  S         4.6777416069        0.6036615062       34.1489627608
  C         5.0727674623       -2.0050506876       34.6793763380
  H         4.9977772906        3.3126802578       18.3778518401
  H         5.2584903043        2.3396745289       17.0156475285
  C         3.6561424578        1.4888576947       18.1379981125
  H        14.3928329055        3.2628832499       22.4879091154
  H        14.5743154877        3.4210348681       20.9200365622
  C        15.7865129647        1.9119333927       21.9437669223
  S        10.1453441607       10.1676114374       17.4764912656
  N        10.5648065729        9.7672110327       15.9300002069
  C        10.8866645881        7.7183251595       14.6391863535
  H        10.7227142669        5.6527492539       13.8305606598
  C         4.6533522849       -0.0484875232       35.7387927161
  N         4.7294307748       -1.4056474328       35.8247764567
  O         5.3255460245       -3.2016970975       34.5426974873
  H         3.0558687984        1.6012595820       17.2830576510
  H         3.0163787821        1.7569546535       18.9678918627
  C         3.7638502664       -0.0397963821       18.4254221820
  H        15.6990840936        1.4786918344       22.9331505512
  H        16.0225224978        1.1205180606       21.2210455326
  C        16.8225375012        2.9267305597       21.9338531804
  C        11.2397151297        8.4861477270       13.4584947161
  S         4.3476313986        0.8829274585       37.1526417860
  C         4.9601500873       -2.0559749838       37.0907417171
  H         4.6745078326       -0.5222614201       17.9534842500
  H         3.8704080947       -0.2167326966       19.4729989744
  C         2.5041462882       -0.8081700647       18.0246407443
  H        16.5431896929        3.8778263305       22.4217848987
  H        17.0684022315        3.1428046585       20.8919109173
  C        18.1323187402        2.3956703923       22.5028678481
  H        11.1063749068        9.5467396723       13.5945169879
  C        11.8114218967        8.2829927209       12.2172732004
  H         4.2321825808       -1.7632608077       37.8991046317
  H         4.9726550954       -3.1436664609       36.8822878927
  C         6.3799670044       -1.7224147586       37.6081728592
  H         1.6875498663       -0.1630417944       18.3575144036
  H         2.3992208729       -1.7128715840       18.6121959421
  C         2.3115178178       -1.3949961197       16.5879293382
  H        18.5682116797        1.5352328154       21.9141511034
  H        18.8834623729        3.1777749138       22.3476803356
  C        18.0138982198        1.9964916523       24.0150905786
  S        12.2156446105        6.7426702105       11.5131102754
  C        11.9678710308        9.3877770314       11.2023122897
  H         6.3968201706       -0.7837864610       38.2284998799
  H         6.7611258801       -2.4893343352       38.2025782030
  H         7.1289587247       -1.5630995869       36.8343657103
  H         3.2001098906       -1.9833788226       16.2812321727
  H         2.2689648708       -0.5747216532       15.8257113533
  H         1.3788665922       -2.0299282562       16.4638268663
  H        18.8540596124        2.4467379726       24.6603650784
  H        17.9081295356        0.9136085275       24.2782969216
  H        17.1929719813        2.4785837240       24.5873569375
  C        12.5187228506        7.5805769868        9.9772530369
  N        12.3899993070        8.9204746220       10.0150815737
  O        11.5531041015       10.5492735276       11.3965681790
  S        13.0638617708        6.8656164323        8.5040442159
  C        12.4378076496        9.7741247494        8.7968043008
  H        12.6807940375       10.7615414082        9.1963325368
  H        13.3465641677        9.5240949862        8.1149870181
  C        11.1162879050        9.6417715251        8.0110096857
  H        10.9304487753        8.8423386004        7.3007202460
  H        10.1760816764        9.6107675731        8.6129035559
  H        11.0002340397       10.4352606056        7.3420490826
  H         2.8517627474        3.5138671829       12.6160098779
  C         3.6456472273        2.8060437698       12.9372308421
  H         3.1699630966        1.8307674306       13.1622574362
  C         4.6231576665        2.5354591544       11.8554746621
  C         4.2267176809        3.0156745420       14.3421685637
  C         4.1096423595        2.5036561052       10.4541324698
  H         5.0220854637        1.5206246722       11.9983959091
  H         5.5239435548        3.1316196492       12.0608416310
  H         4.8838658107        3.8148260693       14.4985625734
  H         4.9293238559        2.2589500068       14.6888278870
  H         3.5036602796        3.0961162230       15.1448123649
  C         4.6129705060        1.3872997303        9.6038448099
  H         2.9992261496        2.3099328695       10.4642529396
  H         4.2369959109        3.4166438710        9.9236614147
  C         5.6667160390        1.8717335101        8.5183301472
  H         3.7702909865        0.8530646008        9.1068763893
  H         5.1121207478        0.6279659981       10.2796446974
  C         6.8262116084        2.7481427689        9.0025737657
  H         5.0618754187        2.2845422121        7.6898376908
  H         6.1459713827        0.9307448185        8.1245180620
  C         8.2713356933        2.1047896202        9.1312653052
  H         7.0082880261        3.5575937310        8.2118934517
  H         6.4442342579        3.2974679168        9.9004392558
  C         9.4227272222        3.0464201272        9.3257255592
  H         8.5821197201        1.3813942539        8.4123035582
  H         8.1887447521        1.5531035363       10.0957552532
  C         9.0411543916        4.3007631296       10.0569974007
  C         9.7501555572        3.7470819947        8.0799267583
  C        10.6175093772        2.3631025252       10.0530815756
  C         9.1296577072        5.4251709902        9.2568700749
  C         8.5906228018        4.6504184033       11.3557997719
  C         9.6799934059        5.0965963526        7.9939713863
  C        10.2333838468        3.1615207814        6.9100807376
  H        10.3270926184        2.0031542685       11.0333413819
  H        10.9679332326        1.5261973308        9.4175022529
  C        11.8692827176        3.2402803834       10.2703213083
  S         8.5747279478        6.8504411136       10.0085450997
  C         8.3455558185        5.9750486561       11.4827623821
  H         8.4848752119        3.8564778400       12.0599771776
  C         9.9537293512        5.7596425899        6.8277341581
  H        10.2840980938        2.0723616210        6.8968182971
  C        10.4718311736        3.7959187398        5.7363268180
  H        11.5479237526        4.1772070776       10.6519574807
  H        12.5261261722        3.4655860701        9.4640784024
  C        12.8912209442        2.6454244305       11.2081359877
  C         7.6796218880        6.5749178607       12.7043630675
  C        10.4031921312        5.1383593792        5.6474155344
  H        10.0095899250        6.7919426595        6.7104171664
  C        10.7860000960        3.3995181138        4.4535004406
  H        13.7486558004        3.3514160586       11.1809244904
  H        13.3105466247        1.6864628231       10.8710650482
  C        12.4874652019        2.4043787334       12.6190725950
  C         7.8361593790        7.9645650275       12.9985616054
  C         7.1952591347        5.6994800407       13.8936676326
  C        10.7466626039        5.7786523701        4.3242375056
  C        10.9443350154        4.4463150851        3.5994468062
  S        11.0329666992        1.9156817738        3.7508810104
  H        11.9881246505        3.2807865775       12.9523230616
  H        11.7240531021        1.5914850604       12.7035243620
  C        13.6282733230        2.2117034475       13.5965931010
  N         8.2754892635        8.9455545678       12.0928253835
  C         7.5461575730        8.5278776003       14.2644266668
  C         6.9476243719        6.2537294365       15.1331639580
  H         6.8755541037        4.7008826173       13.7521412307
  C        12.0695282877        6.6362177998        4.2668084060
  C         9.5441204045        6.5640577263        3.6544113192
  C        11.2819213224        4.0342472284        2.3102578824
  C        11.4546825275        2.6857508982        2.2426903695
  H        14.3556985090        2.9887322415       13.6038813263
  H        14.1660978847        1.2789794402       13.5028571647
  C        13.0402511714        2.2132812465       14.9814054901
  S         8.3001004327       10.4333558696       12.7903393843
  N         7.8762124576        9.9155473213       14.3396549030
  C         7.2254081201        7.7206998051       15.3609625027
  H         6.5620983504        5.5184325447       15.8809517946
  H        11.9733750177        7.4812966547        4.9393082747
  H        12.2198213270        7.0154707535        3.3242258222
  C        13.3945214861        5.8976141112        4.5952676271
  H         9.2561698155        7.4024184318        4.2833313644
  H         9.8890155306        7.0717513714        2.7631462927
  C         8.2856586639        5.7326745898        3.2580358577
  H        11.2388372825        4.7535031438        1.5113683438
  C        11.7423672732        1.8929307215        0.9920026563
  H        12.7148571390        3.2169520783       15.1864546951
  H        12.0739611199        1.6508906012       14.9757046789
  C        14.0473545864        1.8901962714       16.0648632127
  C         7.0257580551        8.4466433691       16.5700349300
  H        13.3402253648        5.3695353224        5.4745151640
  H        13.6722074063        5.1768856247        3.7972754440
  C        14.6556368850        6.8187409960        4.8014089055
  H         7.8286286053        5.2681511819        4.1472970135
  H         8.7004182671        5.0407167376        2.5652956413
  C         7.1913563999        6.6676833248        2.6390546346
  C        11.8134361159        0.4875065051        0.8881243486
  C        12.1075412769        2.6056013593       -0.3513666756
  H        15.0413891791        2.1561207486       15.7257718262
  H        14.0169256354        0.8104632217       16.1280938689
  C        13.7051222393        2.5604916936       17.4075287520
  H         7.1965370160        9.5058198760       16.5845909887
  C         6.6291347965        8.0015300901       17.7851096961
  H        14.4614008490        7.5971050248        5.4283342257
  H        14.7435582931        7.2641694069        3.8415027828
  C        15.9408694537        6.0812272990        5.0689335576
  H         6.8966980336        7.3673217195        3.4627530195
  H         7.7960428096        7.3816105930        2.0158975103
  C         6.0317074011        5.8938565083        1.8797222076
  N        11.4676791700       -0.4129098238        1.8753569843
  C        12.1732163745       -0.1865804577       -0.2739118414
  C        12.2769338061        1.9455121037       -1.5765062160
  H        12.2034581797        3.6846228870       -0.3522791352
  H        12.8104880680        2.2540888488       17.9207652353
  H        13.6620514690        3.6674401416       17.4066810715
  H        14.5834425122        2.3540714142       17.9605622008
  S         6.3342066239        6.3503365663       18.2441584912
  C         6.6284885329        8.9093598502       18.8676293027
  H        15.7574689487        5.0802109035        4.6766579728
  H        16.8193915762        6.4537615857        4.3998961328
  C        16.2398877485        6.1242460181        6.5867667475
  H         5.9757954162        5.0230616544        2.4791794733
  H         6.3576703562        5.5104555312        0.8620880837
  C         4.7186913267        6.6610511326        1.6975580777
  S        11.7005517811       -1.9205777055        1.3596556228
  N        12.1648292753       -1.5529285975       -0.1564363949
  C        12.4086422747        0.4390815100       -1.5185693594
  H        12.3520813845        2.4765491080       -2.5213571011
  C         6.2299738366        6.9082868725       19.8933383417
  N         6.3170626881        8.2582127665       20.0850022839
  O         6.7448698433       10.1579898077       18.7121253712
  H        16.5306942912        7.1381390882        6.8900267902
  H        15.3647414848        5.8612037703        7.2135067281
  C        17.4958225562        5.2877648709        6.9501472970
  H         3.7938351269        6.1725202698        1.4769322692
  H         4.5428651962        7.0513902492        2.6783597241
  C         4.7814180210        7.8091566499        0.7401193135
  C        12.6322774296       -0.3841766402       -2.6452620068
  S         5.7824676571        5.7877624685       21.2120888934
  C         6.2115193750        8.9697838496       21.3757557152
  H        17.4504598913        4.9989554856        8.0080307106
  H        17.5650614735        4.3399925050        6.3391648615
  C        18.8683723162        5.9879153966        6.8185858845
  H         4.6609332061        7.3436969221       -0.2912888555
  H         5.7929522148        8.2561581925        0.7543026202
  C         3.6876576661        8.8487677488        1.0718038096
  H        12.3399864375       -1.4354089165       -2.6458699935
  C        13.0290974762       -0.1339037060       -3.8803604557
  H         5.4286911317        8.5027686516       21.9377106341
  H         5.8255670864        9.9728813627       21.1333807795
  C         7.6815668741        9.0631655139       21.9127482682
  H        19.3877131912        5.9586120936        7.7341330695
  H        18.7018890952        7.0285224102        6.5556796747
  C        19.8505271766        5.3090237222        5.9008493816
  H         3.2337063031        9.0700422749        0.0613068479
  H         2.9936302142        8.5045874823        1.7886088287
  C         4.3018264464       10.0959803617        1.5843459138
  S        13.5901858055        1.3501099262       -4.4545596288
  C        13.2419365184       -1.3091339113       -4.7869157837
  H         7.7896421342        9.9899411883       22.3948116064
  H         8.5344202151        8.9903174194       21.2573449622
  H         7.7588829400        8.2460263432       22.6929325815
  H        20.6310150273        4.7838724629        6.4345983543
  H        19.4381136392        4.7460144638        5.0463619735
  H        20.3184888040        6.2052536698        5.4784971397
  H         4.6409958835       10.7061512418        0.8203412652
  H         3.5378225315       10.7420350465        2.0696735034
  H         5.1374511660        9.9381197995        2.2691513271
  C        14.0769297718        0.4788100780       -5.9971458049
  N        13.8815510991       -0.8903468191       -5.8988811526
  O        12.9139147363       -2.4601926837       -4.6016058809
  S        14.5019778572        1.1907388350       -7.6278906265
  C        14.0667077774       -1.7267523398       -7.0495012328
  H        14.5983469288       -2.5939570022       -6.7505197199
  H        14.7332947763       -1.2652872537       -7.7741621668
  C        12.8068700021       -2.2083319365       -7.7758813120
  H        12.7756438291       -1.5701269070       -8.6290782632
  H        11.8757017748       -2.1451399918       -7.2421678143
  H        12.8337123208       -3.2340096478       -8.0915587028
