352
 i =    65700, time =    32850.000, E =       100.1641182367
  H        12.6319044931        6.2050648712       32.3161797232
  C        11.5762093063        6.0396945725       32.4610285069
  H        11.5266416248        4.9692473093       32.6878702723
  C        10.8149060823        6.4389731190       31.1876249233
  C        11.1302827265        6.8214263831       33.6675952762
  C        11.5453546477        6.1221761213       29.8734891151
  H         9.8631815501        5.9291058480       31.2017288205
  H        10.5249573630        7.5130188829       31.1305241307
  H        11.0013839031        7.8434226241       33.4343209593
  H        10.1933641769        6.4187454309       34.0824619542
  H        11.9318443752        6.7200572735       34.4529096725
  C        10.5663503357        5.4991587816       28.9053272124
  H        12.4019796008        5.4570446222       30.0068331787
  H        11.9294393349        6.9994604915       29.4676867526
  C        10.9404853252        5.8939257999       27.4846369701
  H        10.5430208792        4.4277679257       29.1412011837
  H         9.6092633619        5.8632848209       29.0725550096
  C         9.9094495514        5.2946150814       26.5320424734
  H        11.9493246698        5.6123238718       27.2911788426
  H        10.7258595561        6.9516538831       27.2774285718
  C         8.6154299774        6.0622009015       26.2477062196
  H        10.5211036940        5.2279898652       25.6170799903
  H         9.6425200641        4.1938172228       26.6492857905
  C         7.4786340145        5.4027512839       25.4963280536
  H         8.1554325645        6.3336798398       27.2242991787
  H         8.8700548605        7.0304711576       25.7784592313
  C         7.1053060040        4.0874630411       26.1446575704
  C         8.0431101786        4.6361522420       24.2998359726
  C         6.3394582885        6.4369085518       25.1808834578
  C         7.4417845337        2.9956052843       25.3673371464
  C         6.6052327727        3.6946864438       27.4219468992
  C         8.0320036169        3.3160445365       24.1479964865
  C         8.5223217701        5.2257765495       23.1478924596
  H         6.9015220372        7.1673928120       24.5096011839
  H         6.1572332968        7.0754987328       26.0340304811
  C         5.0826547520        5.7461102928       24.5800448684
  S         7.2400944643        1.4848634436       26.1816763109
  C         6.6160400794        2.3242120131       27.5625928052
  H         6.2522864334        4.4354807240       28.1091467953
  C         8.4514815139        2.6643119449       23.0127397235
  H         8.4782784016        6.3847819725       23.1416393366
  C         8.9931503344        4.5935062655       21.9946063384
  H         5.3518253170        5.2451377447       23.6704094148
  H         4.8708778636        4.9183996959       25.2244042420
  C         3.8064057854        6.5711351021       24.4271408650
  C         6.0096824138        1.5379492254       28.6728095654
  C         8.8867771953        3.2776429173       21.8674927353
  H         8.2177680386        1.6178012334       22.9484709620
  C         9.3216348183        4.9623762843       20.7623687114
  H         3.1068560719        5.9539338364       23.8433982762
  H         4.0986156947        7.4917915950       23.9315689147
  C         3.1832478236        6.8926307875       25.7659157771
  C         6.1121936872        0.1441286046       28.8958081482
  C         5.4067424846        2.3198196260       29.7666774237
  C         9.1768691519        2.5482317504       20.6301894014
  C         9.4301924114        3.8844024880       19.9084922949
  S         9.5436618482        6.4843455726       19.9741262949
  H         2.4751183698        7.7672805393       25.6873075115
  H         4.0555371965        7.2850987105       26.3485019054
  C         2.3596842358        5.7978428356       26.3469109931
  N         6.7309574855       -0.7454546015       28.0109310785
  C         5.7521011118       -0.4728361587       30.0791853639
  C         5.1152299630        1.7832984540       30.9992559784
  H         5.1980058651        3.4023151054       29.6564868884
  C         7.8680743531        1.8406399761       20.1105161412
  C        10.4157468675        1.7070563131       20.5947912249
  C         9.7930137795        4.3027844029       18.6050923348
  C         9.8149394509        5.6697389034       18.4826858518
  H         1.5243300800        5.6948691115       25.6509526805
  H         2.7638057337        4.8023287540       26.3459014203
  C         1.6238240461        6.0222924940       27.7100268773
  S         6.7529615559       -2.2391644010       28.6479658316
  N         6.0691744745       -1.8605741686       30.1195176292
  C         5.2203095900        0.2721244816       31.2294067877
  H         4.7417708384        2.4436620766       31.7914192145
  H         7.7063629957        1.0286281929       20.7642187940
  H         8.0783889213        1.4245197984       19.0891019497
  C         6.6478564909        2.7848963411       19.9831487618
  H        10.3679899700        1.3228427537       19.5872591429
  H        10.2191016415        0.8811342235       21.2590884265
  C        11.8071629953        2.3348742356       20.8532503044
  H         9.8522936645        3.6277683708       17.8168874779
  C         9.9811171252        6.4623314049       17.2194611240
  H         1.0013943373        5.1142375330       27.8676131979
  H         1.2616771949        7.0351652756       27.6408005098
  C         2.6855258180        6.0263781129       28.8907837983
  C         5.1066943908       -0.3962515633       32.4859235914
  H         6.8207165256        3.7779065980       19.5140784654
  H         6.3505963011        2.9697766359       21.0431506298
  C         5.5246278445        2.0154872680       19.2284067967
  H        11.8753144021        2.9515391159       21.6848591946
  H        12.0945389809        2.9397362558       19.9768938105
  C        12.8395478180        1.2438162132       21.0164266630
  C         9.8077153308        7.8602640636       17.1502436591
  C        10.1909676628        5.7593968513       15.9604825903
  H         3.3138560113        5.2079041658       28.9352787504
  H         3.1445754521        6.9630429408       28.6879059784
  C         2.0398182867        6.0837918322       30.3096229635
  H         5.1539394258       -1.4349542737       32.4579071398
  C         4.7920002189        0.0079379753       33.7188338372
  H         5.0350226536        1.2751388694       19.8394026452
  H         6.0353050196        1.4980890913       18.4808819116
  C         4.5537793934        2.8885956025       18.4875675198
  H        12.5317150258        0.5952156012       21.8167250506
  H        12.8303162009        0.6736026006       20.0178223581
  C        14.3161414735        1.6149316787       21.1949927577
  N         9.5432602433        8.7022357274       18.2171316286
  C        10.0201934897        8.5833709757       15.9834074316
  C        10.2294448980        6.5057083015       14.8218251441
  H        10.3440212573        4.6587616036       15.8872899251
  H         1.5334712957        5.0931153184       30.4680286730
  H         2.7871972375        6.2310848892       31.2343043524
  H         1.3089545281        6.8927562128       30.3843658394
  S         4.3014721158        1.6157323977       34.1782266232
  C         4.6875181229       -0.9369695347       34.8444077756
  H         4.5870558795        3.9249200343       18.8149981822
  H         4.8778854055        2.9440689421       17.5118348091
  C         3.0980637629        2.2537845580       18.4260605116
  H        14.4961330325        2.5782942473       20.6999061252
  H        14.9389704266        0.8894208573       20.7145493446
  C        14.7135352791        1.6949739187       22.6770234511
  S         9.6352555962       10.2767484423       17.7763476003
  N        10.1027148303        9.9870541205       16.2056930031
  C        10.2994806494        7.9573834644       14.7301399674
  H        10.2740908892        5.9840967692       13.8748734819
  C         4.3558798296        1.0791841881       35.8580815760
  N         4.4655783644       -0.2917046803       35.9731339116
  O         5.1104313752       -2.0630531588       34.7862652849
  H         2.2736877477        2.9322788652       18.0953109624
  H         2.7599793838        1.8246972576       19.3833872326
  C         2.9630648150        1.1537652416       17.3553424601
  H        13.8097320653        1.7387071333       23.2277700492
  H        15.1827010918        0.8080725889       23.0736556607
  C        15.5174317051        2.8977692755       22.9634575841
  C        10.6352721978        8.7599323186       13.6623960169
  S         3.9620071645        1.9326753599       37.3262150053
  C         4.5616854428       -1.0643114140       37.2250864238
  H         2.1404522533        1.3758148655       16.6544621062
  H         3.8293810077        1.2057399873       16.7928273564
  C         2.8952995963       -0.3635709802       17.9063868236
  H        15.4778957488        2.9428164324       24.0464005691
  H        14.9695260938        3.7469945185       22.7139801038
  C        16.8876386289        2.8988553128       22.3110375262
  H        10.4904335961        9.7712611821       13.6944405216
  C        11.1777424812        8.4674900563       12.4097964324
  H         3.9136814520       -0.6614104364       38.0221267273
  H         4.1810371076       -2.0245101376       37.1219359647
  C         5.9656531171       -1.0709079932       37.7513731792
  H         3.5710114739       -0.5442910221       18.7362142699
  H         3.2034836015       -1.0633438459       17.1014972175
  C         1.4058618007       -0.6645678478       18.3269986412
  H        16.9101947609        2.4472697344       21.3577943683
  H        17.2590571553        3.9195879945       22.3090179554
  C        17.8419586887        1.9993068765       23.0753815392
  S        11.7113461411        6.9642480906       11.9426294611
  C        11.3061171580        9.5046287931       11.3723552850
  H         6.2953845738       -0.0751752948       38.1044821952
  H         6.0122115543       -1.8238865282       38.5622778093
  H         6.7598060547       -1.4181886412       37.0683049470
  H         1.0870203611       -1.6904268523       18.0786359521
  H         0.7773781977        0.0762179970       17.7497656885
  H         1.2893788237       -0.3095359972       19.3900953178
  H        17.4581675277        0.9184810153       23.1127709392
  H        17.8726993092        2.4433037082       24.0720112313
  H        18.8173611298        2.0381738594       22.5896556977
  C        11.9745562321        7.6694437784       10.3818513520
  N        11.8283043848        8.9980895937       10.2668560886
  O        10.8054060431       10.6297861081       11.4862693657
  S        12.6582348687        6.6956653435        9.0058006438
  C        11.9599470300        9.6710718951        8.9821730739
  H        11.9467342240       10.7215537224        9.1245198589
  H        12.9607845036        9.4915530752        8.4828175166
  C        10.8110054909        9.2999038399        8.0437832071
  H        10.8950210912        9.7358850998        7.0673015291
  H        10.7312347496        8.2729274842        7.9055650648
  H         9.8482304763        9.6998186147        8.4719064806
  H         4.8627598626        2.0802563504       12.4081887297
  C         4.0357601630        2.7591351841       12.4646735412
  H         4.5197542982        3.7074441055       12.4189102086
  C         3.0558113887        2.6743174095       11.2792800824
  C         3.3042482836        2.5756202703       13.7334646402
  C         3.5676936954        2.9734757286        9.8949844033
  H         2.3347492310        3.4663166755       11.5497339920
  H         2.4955348898        1.7654031861       11.2383092631
  H         4.0265704644        2.5242712108       14.5146295411
  H         2.8177735030        1.6629296447       13.6044525935
  H         2.6565116099        3.2940489761       14.2116172545
  C         4.5169648619        1.7348521794        9.4550855495
  H         2.7454748604        3.1259584706        9.2163402870
  H         4.1341982577        3.8139530153        9.9845480413
  C         5.2736436634        2.0781831343        8.1920535622
  H         3.8079786319        0.9514064393        9.2294828456
  H         5.1989683222        1.4510446429       10.2267390530
  C         6.5131569041        2.9193769083        8.3471933532
  H         4.7298240691        2.5799747278        7.4518971079
  H         5.3905471037        1.1481383997        7.6393399178
  C         7.7602078632        2.0540020498        8.8626061002
  H         6.7768981083        3.3107329368        7.3678334943
  H         6.3085922237        3.7556421769        9.0304543693
  C         9.0292449134        2.9627878376        9.0775875674
  H         8.1654190621        1.1637672542        8.3841609049
  H         7.3736956941        1.6175373177        9.8016369835
  C         8.7165295850        4.2718968418        9.8404248224
  C         9.4384470200        3.7393653706        7.8660541496
  C        10.1502165796        2.4155723043        9.9574053963
  C         8.9226525906        5.4294491681        9.0908919988
  C         8.1089343422        4.6797916970       11.0700988524
  C         9.4197702496        5.0949076584        7.8338213276
  C         9.9143168355        3.1775495691        6.6620784289
  H         9.7515506796        2.2359394433       10.9470622454
  H        10.3072252128        1.3857865549        9.5585724296
  C        11.4977547844        3.2670915503       10.0456872822
  S         8.5508744897        6.9430244743        9.8730982631
  C         8.0039411291        6.0790712820       11.2512600489
  H         7.6900289558        3.9074335677       11.6846826742
  C         9.6993718908        5.7452798338        6.6729568640
  H         9.8472068455        2.1448917292        6.5197688766
  C        10.2106349829        3.8589319230        5.5424155648
  H        11.2819857808        4.3453295066       10.1483488358
  H        11.9271299769        3.1637349145        9.0628057027
  C        12.4302281894        2.7197474538       11.1780536870
  C         7.4290255887        6.7290816222       12.5049795672
  C        10.0796175218        5.1522197954        5.4641475929
  H         9.7914377666        6.7916348858        6.6536331900
  C        10.6032666846        3.5430986177        4.2460489476
  H        13.4826611355        2.8210369772       11.0082152609
  H        12.2738095686        1.6346772487       11.0924405951
  C        11.9564538044        3.1071890416       12.6341058829
  C         7.4972740261        8.0901899048       12.8057642697
  C         6.8526964566        5.9034423779       13.5667891117
  C        10.5007169472        5.9113045993        4.2010228831
  C        10.8768394079        4.6440370112        3.4523967160
  S        10.8350416081        2.0265410400        3.4426489478
  H        12.6113080071        3.8444469349       13.0531106572
  H        10.9924040425        3.6950304330       12.6656275481
  C        11.9426180109        1.8921295426       13.5365069213
  N         7.9359532376        9.0099601293       11.8723406189
  C         7.1018899043        8.6457125491       14.0180540011
  C         6.5621411915        6.4174058097       14.8533418122
  H         6.5250640246        4.9281721613       13.3191326392
  C        11.7404298311        6.7851728021        4.6155474240
  C         9.3940936381        6.6831427574        3.4917742950
  C        11.2132910263        4.2602800432        2.1444084840
  C        11.2231615233        2.8990282303        2.0144749855
  H        12.8468561017        1.2798325017       13.4948894644
  H        11.0989993516        1.3371670371       13.2350285732
  C        11.6783818072        2.0917461382       15.0150068172
  S         7.7739034333       10.4943851772       12.5306281747
  N         7.1213266912       10.0389947511       13.9343259730
  C         6.7334660206        7.8556450542       15.1324536795
  H         6.1443657178        5.7362298798       15.5205336632
  H        11.5079303187        7.2868945030        5.5597763527
  H        11.9987952730        7.6009488175        3.9118863264
  C        13.0485403433        5.9996721902        4.7919792164
  H         8.8575856866        7.3205159033        4.2400153396
  H         9.8484974914        7.3429896222        2.7378736136
  C         8.2873181928        5.8793828190        2.9307289851
  H        11.5255437493        5.0717927315        1.4546190594
  C        11.5395608764        2.1097306585        0.7840478037
  H        10.8047641234        2.6379381418       15.2117068877
  H        11.3645185413        1.2035036394       15.5070356212
  C        12.8480778351        2.6776674692       15.8018316457
  C         6.4521851817        8.5095789734       16.3319725682
  H        12.8739141919        5.1036391797        5.4351569002
  H        13.2946026155        5.6467830171        3.7584135041
  C        14.2382680323        6.7380251469        5.2807149522
  H         7.7389952764        5.4151455787        3.7244521085
  H         8.7900177723        5.0895367516        2.3976807456
  C         7.4249884399        6.6855366599        1.9770158998
  C        11.6259794697        0.7154187444        0.6171018537
  C        11.7997791918        2.9001118548       -0.4687167222
  H        13.0717865040        3.6422322044       15.4525201515
  H        13.7383530596        2.0471932573       15.5748494482
  C        12.6653893377        2.8276248736       17.3252116981
  H         6.3775093068        9.5872238173       16.1945563125
  C         6.2752007542        8.0052167942       17.5833417570
  H        14.0058580618        6.7762436304        6.3487668796
  H        14.2271483550        7.6953296450        4.7370593229
  C        15.5828219298        6.0646126894        5.2395465677
  H         7.0683874714        7.5949316849        2.4607268564
  H         7.9028339495        6.9891676908        1.0722563636
  C         6.2177166701        5.8522803691        1.6329186268
  N        11.3312819760       -0.1880635541        1.6002790185
  C        11.9499048145        0.0741573113       -0.5689490651
  C        12.0190479231        2.2089680281       -1.6691970198
  H        11.8047195487        3.9814230326       -0.5106264039
  H        12.1975196277        3.7486278940       17.4177407349
  H        13.6055830743        2.9761533198       17.8759204838
  H        12.1350829522        2.0141883310       17.8464645680
  S         6.1245241507        6.3570517355       17.9736636739
  C         6.0179243893        8.9662479255       18.6467470177
  H        15.5001948621        5.0372288300        5.3953401746
  H        16.2316331011        6.2292172967        4.3268494139
  C        16.4451042961        6.5191675777        6.4246481164
  H         5.9461496866        5.2497877378        2.5208723133
  H         6.4468660534        5.0773355842        0.8984601114
  C         4.9957535031        6.7338930618        1.3533742160
  S        11.5973065759       -1.7219018791        1.1024575517
  N        11.8872478320       -1.3525194122       -0.4260462602
  C        12.1836976839        0.7662722520       -1.8138975635
  H        12.1738985091        2.8328737650       -2.5069932571
  C         6.0630507747        6.9009671814       19.6015946962
  N         5.8014071249        8.2316455755       19.7421532469
  O         5.8328687988       10.1660811522       18.4783096649
  H        16.9789686885        7.3794912637        6.2050341712
  H        16.0504788656        6.6895155133        7.3900987149
  C        17.4626561292        5.4589728613        6.6363734379
  H         5.2812068642        7.5725505389        0.6742420274
  H         4.4217014567        6.2075804943        0.6598996087
  C         4.0174304815        7.0774620079        2.5171552540
  C        12.4509989881       -0.0622029348       -2.9828658177
  S         5.7375538560        5.8458055259       20.8866328938
  C         5.7059583021        8.8407853952       21.0534834617
  H        16.8663321238        4.6337338350        7.0607392666
  H        17.9329412009        5.1676489207        5.7219599473
  C        18.4884493528        5.7859607635        7.7203250814
  H         4.5638661356        7.0159570527        3.4668842544
  H         3.2106521016        6.3383492260        2.5638996937
  C         3.3969334316        8.4199650812        2.3189884237
  H        12.1008440293       -1.0315658200       -3.0386791686
  C        12.9356134493        0.2116450552       -4.1834519901
  H         5.0950410943        8.2292890106       21.6825749983
  H         5.2124477291        9.8073261377       20.9159896131
  C         7.0701172707        9.0550210490       21.7704330160
  H        18.7387743123        4.9034479194        8.3292907950
  H        18.2173814894        6.4722093145        8.4396608167
  C        19.7827043253        6.3924869092        7.0711235638
  H         2.7840708153        8.4398728501        1.4291657147
  H         2.6144129125        8.3993282044        3.0313970059
  C         4.2861445454        9.6594623389        2.3239941945
  S        13.4906492609        1.7311275947       -4.6085062019
  C        13.0034868987       -0.8620031737       -5.2157649772
  H         7.8807035249        8.5194663185       21.2250642999
  H         7.0238732051        8.6150161543       22.7594926221
  H         7.4329322891       10.1203430213       21.8964320286
  H        20.0375739570        5.8834533039        6.1038064248
  H        19.7762725247        7.4542792905        6.9764534753
  H        20.6546642704        6.2477953845        7.6702230097
  H         4.7294366808        9.8492168206        3.2921903253
  H         5.1713205766        9.5501251045        1.6751377860
  H         3.6963407106       10.5589003242        2.0491185658
  C        13.8151712379        0.9905681625       -6.1785607701
  N        13.6146582430       -0.3434437434       -6.2677928878
  O        12.8357521609       -2.0701554963       -5.0323335443
  S        14.6265746875        1.7617752657       -7.5751315912
  C        13.7981421483       -1.1632431107       -7.4306438702
  H        13.9748249079       -2.1823036123       -7.1599140831
  H        14.7840011456       -0.9092005824       -7.8287608913
  C        12.7494266011       -1.0997909477       -8.5013479510
  H        13.0898022331       -0.7554735855       -9.4253488067
  H        11.9578947119       -0.4122280696       -8.4102054065
  H        12.1714351685       -2.0722367811       -8.6956178898
