352
 i =    39600, time =    19800.000, E =        99.1074607617
  H        10.6440827258        4.4090248391       31.3387825768
  C        10.9503174719        5.4327494422       31.7467355911
  H        10.0755063028        5.9734043867       31.3804897876
  C        12.2354291921        5.7378703609       30.8499407546
  C        11.1074445033        5.5469728354       33.2290204545
  C        11.9256612113        5.2587607980       29.4386868856
  H        12.6774192745        6.7257229338       30.6452780181
  H        13.0613263549        5.1309749327       31.2827134495
  H        11.9099996405        6.2130017923       33.5006427070
  H        10.1892600008        5.9080543572       33.7326647345
  H        11.4925603210        4.5946059650       33.5637780505
  C        10.5928182465        5.7861958459       28.7970383827
  H        12.1306159878        4.2028381619       29.5548451566
  H        12.7577100949        5.5280054626       28.7269720175
  C        10.7669230057        5.6151618532       27.2905671924
  H         9.7217870990        5.2299991923       29.1956848376
  H        10.4454942248        6.8257127948       29.0122692291
  C         9.6343315651        4.8732657350       26.5922067231
  H        11.7036214227        5.2907503996       26.9921044854
  H        10.6394348195        6.6384724395       26.8999366954
  C         8.5004324401        5.8353269916       26.2228080754
  H         9.8539888700        4.5041520942       25.6042294373
  H         9.1699114076        4.1282680251       27.2212390863
  C         7.2186072740        5.1139258122       25.6859330507
  H         8.1505456942        6.4823459481       26.9964497394
  H         8.8362809618        6.5897640831       25.5217432769
  C         6.8169858511        3.7360621092       26.3530439713
  C         7.6127598303        4.3887507002       24.4062120173
  C         5.8814596105        6.0408668144       25.6685230927
  C         6.9276459785        2.6756421999       25.4815625606
  C         6.3690970891        3.2562742626       27.6334745778
  C         7.4703787355        3.0744162225       24.2678895802
  C         8.1880616222        5.0344423899       23.2418559493
  H         5.9144693928        6.9074353603       24.9569600205
  H         5.7710033576        6.4419994457       26.6197490688
  C         4.7318947665        5.2991283783       25.2520448458
  S         6.4989867529        1.1166734149       26.1680648390
  C         6.0914027487        1.9127589400       27.6455244635
  H         6.3283418160        3.9804532564       28.5358108599
  C         7.9230483832        2.4709304492       23.1096743905
  H         8.2914042992        6.1170092547       23.2100271638
  C         8.5670579504        4.3864831124       22.0969087517
  H         5.0837164771        4.8641521747       24.3081679676
  H         4.5432459926        4.4807863318       25.9492394512
  C         3.4470790714        6.1556062289       25.0224103435
  C         5.5520090321        1.2388019434       28.8378515270
  C         8.5025738926        3.0807886104       21.9630752408
  H         7.8431907222        1.3801309179       23.0353421409
  C         8.9996195079        4.7725310160       20.8596695334
  H         2.7758506134        5.7201595736       24.1527442408
  H         3.7767053326        7.1665947378       24.6528830948
  C         2.6447183727        6.1963670307       26.2510844913
  C         5.6372723169       -0.1302403122       29.1525451348
  C         5.0486694824        2.1178967487       29.9236535994
  C         9.0350426004        2.3631965281       20.7974135466
  C         9.2274758974        3.6750924371       20.1163986665
  S         9.1471451977        6.3544453248       20.0415849162
  H         1.9101929158        6.9897974530       26.0554524119
  H         3.2712586516        6.5118553273       27.0692622230
  C         1.7985394659        4.9249308926       26.4725672528
  N         6.0387520059       -1.0720291636       28.2288539825
  C         5.3837300170       -0.6726916108       30.3762914198
  C         4.8379106979        1.6122297639       31.1763780833
  H         4.9909341847        3.1761363549       29.7603588285
  C         7.9382664185        1.5625579961       20.0098312769
  C        10.3283896106        1.5922287962       21.0166364056
  C         9.6869759338        4.1078861554       18.8411456488
  C         9.6789063097        5.4411539003       18.6490923038
  H         1.0096823463        4.8885679507       25.7206794717
  H         2.2983302101        3.9981285441       26.2948871556
  C         0.9256443490        5.0614479382       27.7525736091
  S         5.9870721716       -2.5297794494       28.9505516702
  N         5.5939731418       -2.0249611366       30.4195213148
  C         5.0320535280        0.1505278546       31.4372444004
  H         4.5923750724        2.3302870963       31.9036634321
  H         7.7820129738        0.6196172999       20.6026024555
  H         8.2959316030        1.2558403771       19.0499984731
  C         6.4837000846        2.1090824134       19.9591788741
  H        10.4326555149        1.0063685190       20.1432790083
  H        10.0988028699        0.8020721881       21.7164062785
  C        11.5312468039        2.4771252297       21.4227272926
  H        10.0262168836        3.3825677085       18.0840729787
  C        10.0776264102        6.1600343087       17.4057607587
  H         0.0588753569        4.4528790402       27.7147365230
  H         0.5924334806        6.0525799129       27.7805745437
  C         1.7065694963        4.7977086098       29.0792479661
  C         4.8367395422       -0.5717661128       32.6380679529
  H         6.6536681186        3.1282751860       19.6621901700
  H         6.0124747629        2.0540771183       20.9577019440
  C         5.7925434573        1.5515977425       18.7195204566
  H        11.2012458326        3.1973205996       22.2176816038
  H        11.7630680768        3.0298199972       20.5692539043
  C        12.7029196887        1.5394086046       21.8953611751
  C        10.1569261708        7.5728821084       17.2304270218
  C        10.2826840542        5.3703548983       16.1588782677
  H         2.3498734892        3.9879074170       28.8884280389
  H         2.4191488588        5.5680075933       29.3368335845
  C         0.7621330317        4.4554711642       30.1506595002
  H         4.7790422943       -1.6288314706       32.5526696001
  C         4.6490558090       -0.1284395985       33.8943762793
  H         5.9700531758        0.4569803271       18.5321251952
  H         6.2739388049        2.0341755022       17.8845199765
  C         4.3486629760        2.0264643851       18.6530031236
  H        12.4220971200        0.9080319358       22.7180912813
  H        12.9683196840        0.8845146583       21.1193287900
  C        13.9566185225        2.3479934018       22.2738992574
  N         9.9913277684        8.5388459293       18.2631122157
  C        10.4925205536        8.1970462036       16.0592105420
  C        10.6939452081        5.9799890831       15.0059661766
  H        10.3143860704        4.3268583097       16.1530601249
  H         0.1473613981        5.3837668410       30.2841926071
  H         0.1395111685        3.6367138756       29.9298747827
  H         1.3201218993        4.2636849173       31.0616287112
  S         4.3724930193        1.4793956443       34.4497146697
  C         4.5045155885       -1.1375879285       34.9135846873
  H         4.0531195095        2.8731456246       19.1471629871
  H         4.2310607994        2.4017317070       17.6302558555
  C         3.2567473921        1.0738251781       19.1267195622
  H        13.6821861152        2.9790696932       23.1157974400
  H        14.1725566112        3.0404597475       21.3970462720
  C        15.1196530077        1.5507909775       22.8599732215
  S        10.2271793225       10.0536391444       17.6097718782
  N        10.5254867351        9.6048009465       16.1066107842
  C        10.7525665730        7.4317317956       14.9052607933
  H        10.8071841937        5.3542329332       14.1523143677
  C         3.9661618831        0.8207264776       35.9547640697
  N         4.0480164301       -0.5684343834       36.0557631203
  O         4.6234864007       -2.3915500802       34.7065626023
  H         2.3774871353        1.6791873771       19.4214026808
  H         3.6624327770        0.5727313326       20.0032031674
  C         2.8765659311        0.1052488759       17.9715524293
  H        14.7685419913        0.8025608623       23.5881569024
  H        15.5770333938        0.9081012924       22.0905061253
  C        16.2164298770        2.4685174894       23.3788958473
  C        11.1154961361        8.1337343110       13.6971606673
  S         3.5616389790        1.8057196636       37.4233042784
  C         3.8755193415       -1.2617578502       37.2700503225
  H         2.4398117596        0.5732054489       17.2078393284
  H         3.6914908446       -0.4341446540       17.5895955171
  C         1.8135540597       -0.8709094374       18.4844251885
  H        15.8914845561        2.8986746737       24.3283022333
  H        16.3334828023        3.3125507330       22.7211245988
  C        17.4912476056        1.7522282727       23.6195331699
  H        10.7781546329        9.1867135715       13.7556514619
  C        11.6890578613        7.7599040723       12.4603472054
  H         3.0840272984       -0.8067867366       37.8798217294
  H         3.6977025139       -2.2665112475       37.0869051678
  C         5.2264617822       -1.2415457920       38.1208819537
  H         0.8407289353       -0.3287061298       18.5579106760
  H         2.0558408735       -1.0686807144       19.4761852677
  C         1.7624691948       -2.2333310032       17.8772639567
  H        17.9964537534        2.1009829439       24.5812029103
  H        17.3000420792        0.7084257205       23.6330329058
  C        18.4725887738        2.0621626185       22.5046843416
  S        12.1648749654        6.1577393501       12.0338591278
  C        11.7258475572        8.8688977047       11.4715106001
  H         4.8599153952       -1.3432748275       39.1699564878
  H         5.7856043887       -2.1789771592       38.0248071247
  H         5.9469743717       -0.4079634480       37.9063750451
  H         1.1023324020       -2.8960479163       18.3831025355
  H         2.6993829887       -2.7095041604       17.7918169994
  H         1.3385550940       -2.1280750946       16.8417512784
  H        19.0698832454        1.2182013208       22.3278081100
  H        19.1182451795        2.9347580861       22.8297646708
  H        17.9415952336        2.2749058615       21.6058006917
  C        12.4865441724        6.9645446197       10.4231195291
  N        12.2066841591        8.2963098663       10.3556130178
  O        11.3192616386       10.0055046153       11.5642859801
  S        13.1759134806        6.0117152905        9.0164601012
  C        12.4302445370        9.1218668427        9.2242347696
  H        12.4531280797       10.1415159285        9.4717073447
  H        13.4350687989        8.9041198789        8.9687958471
  C        11.3701030339        8.8621962006        8.2023398003
  H        10.9608199527        9.8296268369        7.7372716233
  H        11.8322376037        8.1777678874        7.4548283708
  H        10.6743849492        8.2355242351        8.7098617137
  H         3.2498304688        1.3251688442       12.9348594899
  C         3.7761924957        2.2395528752       12.9220620776
  H         4.7879619232        1.8394561347       12.8268307088
  C         3.3934405233        3.2074879227       11.7855548411
  C         3.7151612853        2.9382047033       14.2947055734
  C         4.3712453146        3.1159958057       10.6232760196
  H         3.4497386745        4.2469755515       12.0914342504
  H         2.3778471340        2.9245087659       11.3789814261
  H         4.3693985982        2.3981424261       15.0438282209
  H         2.6971257136        3.0684540885       14.5575494598
  H         4.2209973368        3.9066017912       14.2186078393
  C         4.6177741768        1.7795265287       10.0142151451
  H         4.0465898965        3.7285881907        9.7997148048
  H         5.3561581685        3.5878387623       10.8074445552
  C         5.3666204727        1.8051915902        8.6590348541
  H         3.7032690145        1.2713715620       10.1041722002
  H         5.3031585461        1.2979988555       10.7681930381
  C         6.6329077923        2.6431252637        8.4942918754
  H         4.6469185145        2.1222251768        7.9295624663
  H         5.4922909162        0.7987841313        8.2801047039
  C         7.8762119791        1.9076726631        9.1291796596
  H         6.9494864304        2.7893808019        7.4240688134
  H         6.4057223238        3.5300753994        8.9639091743
  C         9.1459516527        2.6828673531        9.2754762021
  H         7.9671764838        1.0828383013        8.4495187139
  H         7.5915729182        1.4268438364       10.0507107751
  C         8.8453467615        3.9838149061       10.0049703153
  C         9.5931888370        3.3679056851        8.0211248017
  C        10.3115490632        1.9244217018        9.9757515690
  C         9.0936278622        5.0759912284        9.1862472087
  C         8.5391063923        4.4524247458       11.2984297916
  C         9.5512510541        4.6594223525        7.9464714142
  C         9.9891909336        2.7186779414        6.8102184657
  H         9.9232424867        1.5442996197       10.9272880324
  H        10.6283833578        1.1703529925        9.3213833953
  C        11.4781182321        2.7475311529       10.5814429198
  S         8.9202924121        6.5694504878        9.9685740532
  C         8.3654870508        5.7992717598       11.4170573762
  H         8.4878330672        3.6767271740       12.0636576735
  C         9.9240531750        5.3091720835        6.8385667349
  H         9.9144168102        1.6507537198        6.7894265261
  C        10.3073547175        3.3688729537        5.6749074555
  H        11.2503694940        3.4982857982       11.3820348208
  H        12.0490946860        3.3279558390        9.8037509209
  C        12.6372777347        1.9348717230       11.1900523796
  C         7.8901869724        6.5441339552       12.6446818242
  C        10.2861669262        4.7134407933        5.6414182951
  H         9.8862064035        6.3514597426        6.7964738799
  C        10.7920245338        3.0173311463        4.4515962258
  H        13.5346591756        2.1018441019       10.5287740201
  H        12.3396344499        0.9124428999       11.2519721041
  C        13.0084955816        2.3280464968       12.6404572693
  C         7.8273809196        7.9387219661       12.7582025881
  C         7.4155347720        5.7564283332       13.7008922789
  C        10.7729926727        5.4688449483        4.3725488338
  C        11.0214405715        4.0982274247        3.6293743850
  S        11.0073530468        1.4961204491        3.6670970656
  H        14.0585775061        2.1971872419       12.8184840889
  H        12.8215290799        3.4199410782       12.8562926338
  C        12.2978222263        1.6054336907       13.7580138348
  N         8.1397476612        8.8849779770       11.7462277890
  C         7.6002198798        8.4421814484       14.0073066813
  C         7.1267731065        6.2674808764       14.9653252456
  H         7.3045590240        4.6903120399       13.5955754018
  C        12.0791936621        6.2660851009        4.5710439493
  C         9.7118212049        6.3947992923        3.8280675821
  C        11.2128879751        3.6746980109        2.3271940877
  C        11.3059322215        2.3145106316        2.2061376069
  H        12.8265940348        0.6155789444       13.9035851344
  H        11.2157739815        1.2741674896       13.5544846630
  C        12.1609792333        2.3895933475       15.0866912066
  S         8.2649017464       10.3202769115       12.5214395274
  N         7.7906081246        9.8199828172       14.0497681023
  C         7.2748698604        7.7130679674       15.1660355191
  H         6.7150198518        5.6718873675       15.7244566616
  H        11.8769099047        7.1405783374        5.1919204297
  H        12.3312538816        6.7011155555        3.6102220669
  C        13.2857771998        5.4844918260        5.0609975804
  H         9.4306301012        7.1166061295        4.5488617684
  H        10.1174281412        6.9066550962        2.9710394844
  C         8.4743770753        5.7105436161        3.3565221159
  H        11.4277531552        4.3717404871        1.5729322363
  C        11.8247491577        1.5159220699        1.0599200141
  H        12.6302556022        3.3140712584       15.1130959949
  H        11.0442615731        2.7238222162       15.1070993520
  C        12.5938933623        1.4957936951       16.2482174273
  C         7.0266648626        8.3552878462       16.4426295631
  H        13.0577491349        5.0138814147        5.9664095286
  H        13.5448218156        4.8374170108        4.2813321026
  C        14.4297190238        6.4834638692        5.3749511849
  H         7.9572730583        5.4551367449        4.2908108696
  H         8.5917983149        4.7875491205        2.7835983863
  C         7.6079858032        6.5986115448        2.4259322554
  C        11.9298684625        0.0817481371        0.8973626956
  C        12.2823919009        2.3517478507       -0.0969280722
  H        13.3819854217        0.8574682274       16.0046290223
  H        11.7844971601        0.8785094246       16.7271184090
  C        13.1536064530        2.3655658713       17.3608988946
  H         7.1600800013        9.3955940949       16.3548424988
  C         6.5272376547        7.9373190716       17.6603819438
  H        14.3209791753        6.8921514177        6.3583744568
  H        14.4923292240        7.2099043902        4.5686168925
  C        15.7743294586        5.7869580970        5.4057965939
  H         7.2075672690        7.2425113632        3.2530906384
  H         8.1696686873        7.2713063806        1.7690617553
  C         6.4289151853        5.8846012491        1.8031382564
  N        11.4274234034       -0.7922299661        1.8309273754
  C        12.2086793699       -0.5109732456       -0.2706238991
  C        12.4404097643        1.7454654381       -1.3552097844
  H        12.2749558243        3.4513746399       -0.1118038414
  H        14.0405638524        2.9020674554       17.0048707067
  H        13.3877625530        1.7695833697       18.2857682755
  H        12.4878650628        3.1520562765       17.6341522363
  S         6.2774713393        6.3170802465       18.0420685993
  C         6.5613779432        8.8815496698       18.7385254964
  H        15.7971245760        4.7786094023        4.9770420060
  H        16.4631386020        6.3831178951        4.7769974824
  C        16.3330137388        5.7366215024        6.8183706848
  H         5.9939970149        5.1703618910        2.5016243806
  H         6.6005627102        5.3210330914        0.8731579713
  C         5.4365075578        6.9288951453        1.4698293868
  S        11.4565450895       -2.2895165712        1.1003507376
  N        12.1771448275       -1.8744387276       -0.2731958508
  C        12.5264659530        0.2228353013       -1.4304395360
  H        12.7017336882        2.4401385331       -2.2036688902
  C         5.8422316004        6.9021116749       19.7025016116
  N         6.0395004184        8.2456614295       19.8283516146
  O         6.6725137325       10.0845715623       18.6526082170
  H        16.3857166668        6.7368329842        7.1812128021
  H        15.6071595973        5.2177075420        7.4268505405
  C        17.7589089262        5.0592293649        6.9691174984
  H         5.9838096725        7.7722904321        1.1008222118
  H         4.7828634301        6.6212520870        0.6794723908
  C         4.5588820217        7.5105726885        2.5729743274
  C        12.7361847606       -0.4662372205       -2.7024678819
  S         5.3589113288        5.9138307669       21.0978962176
  C         5.8607647483        8.9264633165       21.1411734389
  H        18.0580376282        5.2028781096        8.0174955603
  H        17.6295525201        3.9655662917        6.7804734230
  C        18.6987777008        5.8315747442        6.0892786338
  H         4.8587406041        7.1789487946        3.5485822711
  H         3.5391622528        7.1276450144        2.5059721196
  C         4.6076663896        9.0683289396        2.6334875704
  H        12.3590205984       -1.5053443592       -2.6426387894
  C        13.1777227703       -0.1291884037       -3.9348475529
  H         4.9955138470        8.5341627879       21.7819938601
  H         5.5846330486        9.9299049707       20.9257609844
  C         7.2294762324        9.0182909126       21.9202131991
  H        18.5688868925        6.9044696467        6.2226922736
  H        18.5410942024        5.6478146837        5.0399239690
  C        20.2289417933        5.5889035300        6.2786668214
  H         4.2373819196        9.4798313764        3.5648820149
  H         5.6162861815        9.4920993013        2.5301924493
  C         3.8236533975        9.6467158354        1.4911604474
  S        13.7799298917        1.4030173958       -4.4236606067
  C        13.3667606140       -1.2119356100       -4.9194762410
  H         7.1527562805        9.6755553087       22.7879946635
  H         8.0441222103        9.2695492019       21.2123767251
  H         7.4759806947        8.0368424964       22.3798375500
  H        20.4006494711        4.6082975211        5.7739584111
  H        20.8341881145        6.3910278267        5.8012151322
  H        20.4487562126        5.4504715269        7.3941755540
  H         2.8320467957       10.0153418974        1.8315613073
  H         4.3501025592       10.5245314162        1.1151762107
  H         3.7125663510        8.9759882016        0.5852717452
  C        14.3254007492        0.5786037027       -5.8523243499
  N        14.0395649977       -0.7525297407       -5.9842496656
  O        13.2713792328       -2.3793075751       -4.7216981523
  S        14.9397824568        1.2660545437       -7.3090503121
  C        14.3339962392       -1.6052705320       -7.1662423373
  H        14.6624730265       -2.5760922852       -6.7200920803
  H        15.1949232020       -1.2391000082       -7.7364642370
  C        13.1170868595       -1.7863964362       -8.1332598113
  H        12.1836837124       -2.0131838557       -7.5546637080
  H        13.2401454173       -2.6629764290       -8.6850369047
  H        12.8882867720       -0.9157803799       -8.7198147536
