352
 i =    99500, time =    49750.000, E =        99.1664667790
  H        12.2886126527        5.2636484481       31.6319400530
  C        11.3122682123        5.1208038259       32.0799636839
  H        10.9742853433        4.1153718926       32.1142745730
  C        10.3218201009        5.9584982098       31.2648449901
  C        11.4031321266        5.5344118034       33.5817686577
  C        10.6150098793        6.2550440545       29.7799403837
  H         9.3063029132        5.6911771425       31.3498600790
  H        10.4875930105        6.9265829216       31.6986290963
  H        11.4212455793        6.6582366747       33.7135940933
  H        10.4514831044        5.1808638295       33.9204287553
  H        12.2317216996        5.0085737695       34.1394974652
  C        10.4161759582        4.9834617905       28.9597378983
  H        11.6719719077        6.5681548850       29.5331169603
  H         9.9618912873        7.0586061224       29.2940206528
  C        10.8703639600        5.1526039786       27.4595481737
  H        11.0073085077        4.1188862688       29.3107560084
  H         9.4070995853        4.5010090639       28.9913103715
  C         9.7275816965        4.9291263070       26.4359022069
  H        11.6217096326        4.4058814779       27.3366912999
  H        11.2966382003        6.1581456837       27.4541134882
  C         8.5860225605        5.8614674637       26.2731276208
  H        10.1844879529        4.7529576718       25.4919665564
  H         9.3970655078        3.9575282177       26.6951912975
  C         7.3882835422        5.2782748509       25.4931142031
  H         8.3494867250        6.0573201800       27.3625929524
  H         8.9088312304        6.7420981038       25.7127116697
  C         6.9712983640        3.9703078839       26.1871067986
  C         7.8115664467        4.5197715123       24.2561741883
  C         6.1274499121        6.2420973150       25.2734938372
  C         7.1047938379        2.8090804663       25.3397776758
  C         6.4295563791        3.6269666810       27.4669996743
  C         7.6941517462        3.1451669402       24.1165002360
  C         8.4160240036        5.1207533545       23.1278134150
  H         6.3877984515        7.0407011862       24.5503281239
  H         5.8080415546        6.8195738268       26.1564363092
  C         4.8530217248        5.5369910646       24.8093488855
  S         6.7896800999        1.2937212729       26.1316155627
  C         6.3410330839        2.2423249302       27.6129324994
  H         6.3250773663        4.4932203184       28.1019082192
  C         8.2509117518        2.5059883158       23.0486474848
  H         8.5889246317        6.2022501863       23.0708658486
  C         8.8261779791        4.4507966780       21.9894407706
  H         5.0201430137        5.1799459871       23.7550597228
  H         4.7050886464        4.6003271808       25.4063455242
  C         3.4815335262        6.2490065717       24.7099396756
  C         5.9517825909        1.5016737681       28.8885695571
  C         8.7998491541        3.1235005900       21.9141567520
  H         8.1874501327        1.3992240884       23.0112651043
  C         9.3083771978        4.8248055204       20.7332709988
  H         2.8728358346        5.8540111857       23.8634505505
  H         3.6741807234        7.3496294276       24.4418980000
  C         2.7751240407        6.2837379633       26.0661586267
  C         6.0860779257        0.0939526022       29.1123659173
  C         5.4377584420        2.3472273831       29.9993140206
  C         9.2593876275        2.4401661542       20.7000275544
  C         9.5539933729        3.7299520268       19.9806807187
  S         9.5527977556        6.3022084923       19.8788682155
  H         2.1000170400        7.1253474243       26.0847762576
  H         3.5198703496        6.5367971516       26.7910645142
  C         1.9574745388        5.0770612234       26.5169376137
  N         6.6117553259       -0.8728593398       28.2649502126
  C         5.7728021254       -0.4476633933       30.3697668944
  C         5.2867679486        1.8020351545       31.2411779887
  H         5.4126327317        3.3946601957       29.8318756474
  C         8.2267436939        1.6411780287       19.8842200438
  C        10.5633887636        1.6318278251       20.9456963064
  C         9.8021608642        3.9484786173       18.6206862010
  C         9.8496680413        5.3464388461       18.4625912018
  H         1.0543482845        4.7573264001       25.9597030024
  H         2.4635352471        4.1375187544       26.2859324134
  C         1.5395803201        5.1707570367       27.9863384808
  S         6.5239685239       -2.3545216331       28.9915315905
  N         6.0616788405       -1.8386976464       30.5110928903
  C         5.3318805981        0.3266194729       31.4844957982
  H         5.0435552899        2.4671162184       32.0970471665
  H         8.0691329974        0.6625429903       20.2645318060
  H         8.6584344267        1.4696716259       18.9591430494
  C         6.9303892862        2.4450053515       19.5951860312
  H        10.7609498152        1.0570536972       19.9697259723
  H        10.2842449976        0.9845139693       21.7368788232
  C        11.8344906515        2.3847525111       21.4077009180
  H         9.9004208252        3.0939837645       17.8903892576
  C        10.2809638153        6.0059016504       17.1606396055
  H         0.9958973788        4.2650651858       28.2539946442
  H         0.8574385825        6.0363358230       28.0575835245
  C         2.6227828486        5.3658096882       29.0426427824
  C         5.1083968858       -0.2734785840       32.7676221862
  H         7.1149956991        3.3551172755       18.9784728538
  H         6.5149877528        2.9854154000       20.5010987557
  C         5.8648036433        1.7501430324       18.9478407171
  H        11.5816636531        3.0566871596       22.1831335303
  H        12.0794557133        2.9979052487       20.5771947220
  C        12.9585858086        1.4234839962       21.6591994274
  C        10.2581820238        7.4127781750       17.0113719566
  C        10.5516506614        5.1251131316       15.9607258961
  H         3.3055674976        4.5137158381       28.9569234828
  H         3.1058067715        6.3031293038       28.9787995937
  C         2.0147879870        5.4381583560       30.4469943755
  H         4.8841180247       -1.3018642735       32.8576154535
  C         4.7439129159        0.1864013549       34.0366318856
  H         5.4359509587        1.1409192492       19.7651757894
  H         6.4237157971        1.0771053226       18.2833905571
  C         4.6552251931        2.5621285395       18.3639173410
  H        12.7126287247        0.7884188650       22.4738045792
  H        13.2224560018        0.7040197350       20.8807843088
  C        14.2423141661        2.3177209835       21.8019360305
  N        10.0295357106        8.3366852305       17.9916968842
  C        10.6021666867        7.9584533005       15.7795332805
  C        10.8229013089        5.7221760907       14.7309921979
  H        10.7659292898        4.0624794044       16.1420040088
  H         2.0265207087        6.4640345081       30.8724596107
  H         0.9348164362        5.3174995892       30.4952948183
  H         2.5828470457        4.8290149566       31.1421138920
  S         4.5124200095        1.8734188163       34.5542696447
  C         4.6768155039       -0.7959567632       35.1334071254
  H         4.2806221672        3.0642168861       19.2532364331
  H         5.0103549898        3.2505369713       17.6483898880
  C         3.5420835406        1.7651046349       17.6327280824
  H        14.0179879074        3.2474288187       22.4566683846
  H        14.3546119399        2.7332799249       20.8163246004
  C        15.4859735053        1.5510187162       22.1628493704
  S        10.1853077980        9.7865712879       17.2736976372
  N        10.7005791743        9.3207430178       15.8360138731
  C        10.8311278276        7.2166625850       14.6131532555
  H        10.9286677804        5.0547160151       13.9557806626
  C         4.2760306612        1.1694336882       36.1899032866
  N         4.2926388608       -0.1647592315       36.2862577668
  O         4.8159450812       -1.9900511985       34.9760155943
  H         4.0341767210        1.1103922847       16.9515178212
  H         2.9083490504        2.4434582182       17.0352751980
  C         2.5421139952        0.9238909702       18.5636707961
  H        15.2302350084        1.0611357082       23.1339159711
  H        15.6628863860        0.8007475692       21.4149719076
  C        16.7050965532        2.4907615155       22.2978804652
  C        11.0286552128        7.9297604594       13.3988886280
  S         3.8545489668        1.9274707221       37.6959355169
  C         3.9825642236       -0.8678128533       37.5751401633
  H         3.0207828483        0.4823004723       19.4707104009
  H         1.8453856542        1.6176842811       18.8675649545
  C         1.9404325637       -0.3604915047       17.9633038614
  H        16.5894595846        3.3672679914       22.9379688657
  H        16.9062754971        3.0314023509       21.3653412811
  C        18.0497381005        1.6512845839       22.6720204171
  H        10.8589894038        8.9832353986       13.5035905212
  C        11.5868602260        7.5925919229       12.1926663611
  H         3.0907240058       -0.5214550291       38.1151920022
  H         3.6270532965       -1.8385428530       37.2401435496
  C         5.2000733758       -0.9771210275       38.3866789000
  H         1.3000926319       -0.1275217673       17.1718521455
  H         1.2780925016       -0.7501292272       18.7394221806
  C         2.8862748387       -1.5363409232       17.6149128671
  H        18.1986650254        0.7975518002       22.0019777302
  H        18.9708820391        2.1753474066       22.5434725470
  C        18.0145310095        1.2943606348       24.1638296182
  S        12.2004093265        6.0084453229       11.7876208829
  C        11.7025346803        8.6264467941       11.1419164944
  H         5.3545377192       -2.0166484378       38.8188967251
  H         6.0329108901       -0.6894789934       37.7692044068
  H         5.1426817807       -0.2742951529       39.2286454783
  H         3.2502456372       -1.4536904655       16.5906603486
  H         2.3803592859       -2.5474283067       17.6752017288
  H         3.7352683092       -1.5344899678       18.3091678691
  H        18.8701656047        0.7378407813       24.3272457480
  H        17.1160419664        0.7221548864       24.5288113213
  H        17.9414620965        2.2623884266       24.7581683001
  C        12.5952447549        6.7670567747       10.2253324950
  N        12.3017559340        8.0978482413       10.1082098395
  O        11.3217098377        9.7766461073       11.2814227261
  S        12.8988790265        5.8931831640        8.7555850105
  C        12.3078460588        8.8638374479        8.8956776988
  H        12.3980852568        9.9342876502        9.0594286282
  H        12.9829172501        8.4738883019        8.1335716836
  C        10.8887528013        8.7243939957        8.2435601597
  H        10.2007804189        9.4358614465        8.7104622324
  H        11.0139921530        9.0426217015        7.2361725823
  H        10.5371066897        7.7046034047        8.3225149910
  H         2.2983211894        3.5001586334       12.2711173176
  C         2.6855491961        2.5163815724       12.6173120938
  H         2.1128768623        1.7238918105       12.0909992258
  C         4.1172135510        2.4830513590       12.3002463738
  C         2.4356473621        2.4263508480       14.1374290064
  C         4.4437217644        2.6938252435       10.8057923820
  H         4.4923038029        1.5868188841       12.7279494436
  H         4.5131824047        3.2857924634       12.8561249905
  H         3.3610978456        2.5338989421       14.7140081903
  H         1.9448883199        1.4964712181       14.4504463729
  H         1.8126681405        3.2064009786       14.4623570599
  C         4.7657041474        1.3913871836       10.1833900610
  H         3.5747281293        3.0760696386       10.2560772565
  H         5.2746811124        3.4209035116       10.6877160613
  C         5.2769457774        1.3489371131        8.7110000952
  H         3.7910586354        0.7941596441       10.1717793629
  H         5.4679293512        0.8556348144       10.8316478824
  C         6.5404100570        2.2199206150        8.4253663762
  H         4.4455120128        1.6630227720        8.0958831125
  H         5.5354721618        0.2942623540        8.5561461627
  C         7.8573987827        1.5660496201        8.9283265669
  H         6.6560841784        2.3720376689        7.2804515560
  H         6.4202254895        3.1907001983        8.7810670748
  C         9.0796857623        2.5063096423        9.0929470580
  H         8.3154445698        0.7522138910        8.3428220738
  H         7.7767816681        1.1048271924        9.9005212399
  C         8.5841214876        3.7962737543        9.7503168931
  C         9.4345330692        3.1982008638        7.8324036004
  C        10.1679807269        1.9162708842       10.0078787143
  C         8.8159660007        4.9082910190        9.0077283123
  C         8.0952677837        4.1716315991       11.0501853977
  C         9.3513593571        4.5300226068        7.7462553011
  C         9.9111371697        2.5799730871        6.7024631701
  H         9.7005437134        1.4919546227       10.8219646414
  H        10.5546782599        1.1483650977        9.4448692113
  C        11.3075938966        2.8284804324       10.2645383216
  S         8.3165747925        6.3674325801        9.6941845397
  C         7.9643703001        5.5055986594       11.1331822998
  H         7.9365104928        3.4589801322       11.7612066228
  C         9.7148015393        5.1533288038        6.5934573907
  H         9.9895708493        1.4699857254        6.7923331250
  C        10.2705054680        3.1894558244        5.5042366369
  H        11.1318773131        3.8266375897       10.4992710065
  H        11.9741715299        2.9374705874        9.3978937185
  C        12.2709396466        2.2628506921       11.2791951200
  C         7.6241612374        6.2728817190       12.4158343116
  C        10.3133592848        4.5331993657        5.4809382819
  H         9.7280766700        6.2635785118        6.4819347898
  C        10.8452454425        2.8653424061        4.3271628331
  H        13.0213387843        2.9844422748       11.4503545056
  H        12.9502493394        1.5754801456       10.9014034236
  C        11.6916578513        1.6723893153       12.5670028060
  C         7.7903669957        7.6460370911       12.7143359318
  C         7.2279812591        5.4635750694       13.6146521803
  C        10.7935715006        5.2623316335        4.2458066215
  C        11.1452961136        3.9735771510        3.5103700401
  S        11.1969343293        1.3320728919        3.5474112074
  H        11.1022770316        2.4550466185       13.0142622837
  H        10.9697410647        0.8995874460       12.4296715589
  C        12.7781739396        1.3822541256       13.5482830151
  N         8.1715279186        8.6205478166       11.7996779501
  C         7.6369405197        8.2564037979       13.9303341641
  C         7.0951900050        6.0401662705       14.8820481353
  H         7.0973298416        4.4221404613       13.4808950604
  C        11.9753661437        6.1939957308        4.5579765061
  C         9.7506623370        6.0393735289        3.5468669846
  C        11.6863604916        3.5627979861        2.2912630727
  C        11.6885057612        2.2008442146        2.1202245582
  H        13.5243860687        2.2212503262       13.7037193132
  H        13.3809896375        0.5324833962       13.2984694341
  C        12.1636812421        1.1142871855       14.9451659354
  S         8.2191545974       10.1219597825       12.4200502958
  N         7.8728012937        9.6624195689       13.9136829918
  C         7.2677466417        7.5337037104       15.0935187754
  H         6.8331549416        5.3523338673       15.6756468718
  H        11.5937311279        6.9763572290        5.2015728363
  H        12.1634684858        6.7160069057        3.6065255245
  C        13.2335293129        5.4513062833        4.9104112598
  H         9.3372443852        6.7225972893        4.3297949950
  H        10.1507818297        6.6570272364        2.7770884292
  C         8.4957786922        5.2817237166        3.0038202453
  H        11.9319131860        4.3583698849        1.6135293635
  C        12.0208249951        1.4513492297        0.8290863926
  H        11.0821847829        1.4504104678       14.9301648835
  H        11.9548086223        0.0299722306       14.9556112079
  C        13.0344147853        1.6347504578       16.1629286920
  C         7.1914620689        8.2535867230       16.3110758469
  H        13.1595399126        5.0031971465        5.8799418949
  H        13.4747505304        4.6348480479        4.2406650447
  C        14.5624968092        6.2782113905        4.8963186470
  H         7.8843937205        4.7015665062        3.7087041380
  H         8.8530656199        4.6184771120        2.2304782930
  C         7.5165293567        6.3241930478        2.5036645474
  C        11.9269242671        0.0565933342        0.6171800661
  C        12.3604460654        2.2913327677       -0.3153557351
  H        13.2665489219        2.7025525305       15.9442978940
  H        13.9129311951        1.0424204699       16.2610438348
  C        12.2772454466        1.4767130405       17.5259075838
  H         7.4556052548        9.3018722520       16.3689655049
  C         6.9257417003        7.8356979709       17.5657341175
  H        14.5125641434        7.1347419487        5.5744221511
  H        14.6261758166        6.5294309405        3.8595572133
  C        15.7688835924        5.3467672828        5.1323823595
  H         6.8878814641        6.7782576865        3.2654649774
  H         7.9749718700        7.1986962122        2.0447311292
  C         6.6578147346        5.7350419010        1.4142233802
  N        11.6095265725       -0.9148443887        1.5806176847
  C        12.4112945168       -0.5168185522       -0.5288782697
  C        12.7673404159        1.6219121787       -1.5033440896
  H        12.3938387917        3.3504843998       -0.2777284065
  H        12.3429452013        2.4447293701       18.0758824997
  H        12.4781315611        0.5629589863       18.1049004084
  H        11.2156723566        1.4257159724       17.2002394798
  S         6.4812600981        6.2156741946       18.0238139740
  C         6.8345219763        8.8536826580       18.6032409600
  H        15.5604784911        4.2924947183        5.3904433806
  H        16.3843975654        5.3128555654        4.1930206053
  C        16.5939793783        5.8810232146        6.3700239980
  H         6.4030308346        4.7900676157        1.8024454878
  H         7.2778252017        5.6382540960        0.4901202880
  C         5.3209228379        6.5270399122        1.2807436553
  S        11.7262150641       -2.3404867565        0.9879399026
  N        12.4078697667       -1.8906043349       -0.4375888295
  C        12.7062819097        0.1470752605       -1.7022233434
  H        13.1337933940        2.2182020860       -2.3473830835
  C         6.3803057822        6.8296633854       19.6536060035
  N         6.3917307556        8.2003173373       19.6776747954
  O         6.8234091411       10.0883755812       18.3754548737
  H        17.0661794531        6.8220517589        6.1282016522
  H        15.9857994157        6.1317435531        7.2570401902
  C        17.7466501425        4.9072141738        6.6658299618
  H         4.6734362069        5.9595854746        0.6541100131
  H         4.9389787688        6.5771284009        2.3336120136
  C         5.5458068967        7.8896371388        0.6142305385
  C        12.9978975520       -0.6024963601       -2.8873742952
  S         5.8506013657        6.0004115169       21.1572079501
  C         6.1966066342        8.9496702556       20.9035015942
  H        17.2396875960        4.0460154552        7.1835077742
  H        18.1180140559        4.4742655478        5.7235246316
  C        18.8495452582        5.5777760668        7.4450283224
  H         5.5360757526        7.7431850371       -0.4654807768
  H         6.4664853531        8.3396618299        0.8173907707
  C         4.4375138316        8.9564468506        0.8651644433
  H        12.6108477786       -1.6044882254       -2.8498305546
  C        13.4585389529       -0.1351784027       -4.1358961623
  H         5.5234579827        8.5161685980       21.6540162579
  H         5.7809156100        9.9195776792       20.6862835886
  C         7.5914509460        9.3163279863       21.4899134233
  H        19.1328233872        4.9495286301        8.3553290914
  H        18.5005546779        6.4900887300        7.8818002299
  C        20.0174273383        5.9736976011        6.6410435793
  H         4.7741074906        9.8679075937        0.3118372863
  H         3.5837430598        8.6096740995        0.3026721232
  C         4.3199988879        9.2678347985        2.3289151087
  S        14.1084079762        1.3596009689       -4.5930726284
  C        13.4716392864       -1.1330321711       -5.2502692127
  H         8.3855677744        8.6043527405       21.3708534821
  H         7.4858640497        9.4477091080       22.6001237134
  H         7.8923484956       10.3023108801       21.1011186978
  H        19.7284795069        6.8124595185        5.9313125847
  H        20.8206546615        6.3916884332        7.2520972759
  H        20.3808735188        5.1212064926        6.1510661443
  H         3.8229292305       10.2380837828        2.6127677916
  H         3.7682171366        8.4831073152        2.7653968498
  H         5.3100310911        9.4607455654        2.7479499177
  C        14.6347881510        0.5578597574       -6.1565220292
  N        14.2237691092       -0.7107414238       -6.2409826190
  O        13.1298301145       -2.2677874616       -5.0856364010
  S        15.2619630383        1.3973723511       -7.5773319376
  C        14.2774921250       -1.4778741006       -7.4428165749
  H        14.4211363332       -2.5327261800       -7.2745909876
  H        15.1710376020       -1.1960066009       -8.0952755373
  C        12.9740999961       -1.3022860358       -8.1778857648
  H        12.1432427665       -0.7672630244       -7.6271576773
  H        12.4803549425       -2.2926054671       -8.4768549618
  H        13.2323799667       -0.8016602905       -9.0877034185
