352
 i =    69100, time =    34550.000, E =       100.0005505616
  H        11.7978853929        7.1365866404       32.2834617207
  C        11.3261083252        6.1892639764       32.3864931132
  H        12.1041718470        5.4863908593       32.0742483853
  C        10.1996366018        6.0585703781       31.3544142331
  C        10.8771078914        5.8936945915       33.7449160273
  C        10.7466855039        6.2162248641       29.9284700133
  H         9.6899234117        5.0576419898       31.3984962188
  H         9.4176756757        6.8085179037       31.4497962899
  H         9.8516425281        6.3146134509       33.9308568124
  H        10.9017516004        4.8021351677       33.9946238092
  H        11.4155122871        6.5125361664       34.4940626112
  C         9.7409377640        6.1877640490       28.9043607715
  H        11.3350170462        5.3752084940       29.6852648533
  H        11.2880521372        7.1498033608       29.7570517720
  C        10.3483233719        6.1462228319       27.4836793082
  H         9.2565292347        5.2369349676       29.0671338591
  H         8.9844460478        6.9706417402       29.0182636654
  C         9.5147631245        5.5318019256       26.4022351086
  H        11.2156472774        5.5121971122       27.4083587564
  H        10.8692763360        6.9822547542       27.2152598816
  C         8.2234134549        6.2403471769       26.0412200198
  H        10.2051796324        5.3991205746       25.5464721647
  H         9.2352458921        4.4865263596       26.7296855294
  C         7.2330721791        5.5154848870       25.2256472445
  H         7.5978565691        6.3550793504       26.9755759693
  H         8.4208038806        7.2419311318       25.7128205804
  C         6.8486404463        4.2516469142       25.9398183130
  C         7.6377604460        4.8057679934       23.9757804601
  C         5.9959124618        6.4534230155       25.0430428615
  C         7.0827650901        3.0986141286       25.1817326634
  C         6.3935100066        3.7475797060       27.2182653192
  C         7.5901284284        3.4894963604       23.9349393610
  C         8.2897188510        5.3088789948       22.9057865574
  H         6.2565542172        7.2799489796       24.3724734492
  H         5.8105090457        6.9830207555       25.9647679428
  C         4.6816421958        5.8265672698       24.4914039187
  S         6.7823630509        1.6280060468       25.8661496614
  C         6.3041997358        2.3756171007       27.3563912031
  H         6.0795373345        4.4437367583       27.9298023172
  C         8.0800839516        2.7948254879       22.8710806452
  H         8.4227036100        6.3648047511       22.9219335522
  C         8.6719947933        4.6642064062       21.7685164275
  H         4.9841689465        5.6022384107       23.5113738013
  H         4.4476035951        4.8674032019       24.9720586438
  C         3.3830221913        6.7179949803       24.5716801629
  C         5.8733786611        1.6816987795       28.5908073831
  C         8.6730388355        3.3215655072       21.7352848848
  H         8.0696397377        1.7091390800       22.9978513940
  C         9.1030103831        4.9269511256       20.5103622244
  H         2.6966063265        6.6069596648       23.8106854870
  H         3.6279932396        7.7274549334       24.3260103065
  C         2.6048328316        6.7838368836       25.9552676394
  C         5.8142022563        0.2838960988       28.8077749441
  C         5.3548095150        2.4764773615       29.7412204399
  C         9.0719038211        2.5401299061       20.4904484715
  C         9.3287374872        3.8185481952       19.7063455812
  S         9.4200299392        6.4900743284       19.7696653835
  H         1.7001460422        7.3239510409       25.9031192364
  H         3.1879330304        7.2822848387       26.7195415324
  C         2.2315291006        5.4324192880       26.4315775900
  N         5.9665229344       -0.7626368938       27.8372729474
  C         5.5025690027       -0.2651797616       30.0375951522
  C         4.9886530068        1.9271748385       30.9372083975
  H         5.3391263091        3.5610095113       29.6659571698
  C         7.9266625056        1.7074880293       19.8711747955
  C        10.3891003131        1.7295245173       20.5904298498
  C         9.7731136125        4.2440491330       18.4486411419
  C         9.8218411547        5.6399174379       18.3282290694
  H         1.5349493265        5.1362511978       25.5801711336
  H         3.0192515215        4.6765486099       26.4874683867
  C         1.4747671948        5.4802630353       27.7729153159
  S         5.9002844075       -2.2373052355       28.6127230820
  N         5.5561857324       -1.6616944802       30.0468706665
  C         5.1140376503        0.4592882105       31.1364949478
  H         4.6066844124        2.6374297269       31.6639663973
  H         7.4749101981        1.0991980076       20.6870123793
  H         8.2908224384        1.0201403423       19.1117468274
  C         6.7812735575        2.5403145709       19.3094913885
  H        10.5250501130        1.0518905352       19.7683172706
  H        10.1997543504        1.1120535600       21.4752123966
  C        11.6293170201        2.5599426883       20.7836651498
  H        10.0612827642        3.5048371832       17.6885422747
  C        10.0602734009        6.3909572079       17.0218803782
  H         0.9799679902        4.5203907947       27.9035888477
  H         0.6292332773        6.1686319501       27.6643999293
  C         2.3046567175        5.7280084583       29.0573446500
  C         4.9962050803       -0.2735794229       32.4038102009
  H         7.0774306367        3.3271388429       18.5719858069
  H         6.2046037488        3.0404200049       20.1032926938
  C         5.8322704879        1.6470020971       18.5044597236
  H        11.5380438468        3.2742278891       21.5098509323
  H        11.8612291538        3.0719521147       19.8687711833
  C        12.8216419822        1.6576941962       21.0791098587
  C        10.0825825627        7.7978293902       16.9056003486
  C        10.3514358414        5.6825863321       15.8108242687
  H         2.8230474216        4.7925098065       29.3426068468
  H         3.0744930396        6.4230318667       28.7683828833
  C         1.3002144037        6.1964830932       30.2138355514
  H         5.2151104068       -1.2963519535       32.3835753083
  C         4.7359688861        0.1929577647       33.6733526570
  H         5.6726647565        0.7292734274       19.1647759654
  H         6.0366846698        1.2303570512       17.4723984694
  C         4.4139296150        2.3035319647       18.3626495730
  H        12.6806841254        1.2897579769       22.0536647380
  H        12.9521261400        0.8781128354       20.3772766896
  C        14.1221219769        2.5268250885       21.0543247978
  N         9.7340693952        8.6878717045       17.8813380788
  C        10.4235261277        8.4841816921       15.7349578731
  C        10.6901884958        6.3713278530       14.6582504737
  H        10.4728943865        4.5927760736       15.7576783268
  H         0.9869342891        7.2584006145       30.0305858339
  H         0.4888076554        5.5549798346       30.3536142893
  H         1.8486660638        6.0678676732       31.1254099517
  S         4.3368257459        1.7999328742       34.1782648436
  C         4.7445569785       -0.7791452941       34.7467865975
  H         4.1742256030        2.9701737667       19.2179160013
  H         4.3587629177        3.0280966619       17.5711996602
  C         3.2411137196        1.3180752992       18.4969596272
  H        13.9701168957        3.4622858763       20.3688797274
  H        14.9768269920        1.9762446278       20.6661651963
  C        14.4770923709        2.9652798403       22.4580977639
  S         9.7694233628       10.1964235131       17.3144415947
  N        10.3015679938        9.8322582498       15.7689362164
  C        10.9119467296        7.8018056953       14.6182046219
  H        10.8166909490        5.7898758767       13.7415536276
  C         4.0998187517        1.0976550416       35.7794171219
  N         4.3546454623       -0.2285073686       35.8755009666
  O         4.9624583704       -1.9797778154       34.5584678951
  H         2.4357245886        1.9426161650       18.8880605280
  H         3.5168875854        0.7197593149       19.3401773929
  C         3.0293530008        0.5274728475       17.2676862996
  H        13.5366824239        3.3994857563       22.8849000095
  H        14.6893284191        2.0948315419       23.0515287528
  C        15.4685162749        4.1001607673       22.6026726124
  C        11.2245215721        8.5648723918       13.4289909610
  S         3.7422297260        1.8432965039       37.3119938145
  C         4.4381021450       -1.0011463591       37.1502325221
  H         2.4947162325        1.1775110483       16.6062729136
  H         3.9501475851        0.1885473788       16.7409031092
  C         2.1454855916       -0.6326144906       17.5271534798
  H        15.5325846808        4.3601525042       23.6528145788
  H        15.1240435216        5.0413817623       22.1667292341
  C        16.8303774836        3.6378450314       22.0205701265
  H        10.7909502575        9.6123108708       13.4160777796
  C        11.8752414453        8.2860575592       12.2447833654
  H         3.6354639326       -0.7156200560       37.8633001895
  H         4.2525172034       -2.1309837917       37.0067221934
  C         5.7356091411       -0.9013823243       37.8602685167
  H         1.3253121421       -0.2905071592       18.0745335573
  H         2.6881596563       -1.2671155445       18.2201553247
  C         1.7668893105       -1.5464500867       16.3949660160
  H        16.6948061206        3.7282653712       20.9505009382
  H        17.6046203958        4.3361156763       22.3223511893
  C        17.3354418833        2.3494721528       22.6392200772
  S        12.6148075969        6.8071088612       11.7297270309
  C        11.8530588594        9.2963755143       11.1607466108
  H         5.8460205263       -0.0270963764       38.5307438826
  H         5.7855573851       -1.7623276579       38.6054936666
  H         6.5863139960       -1.0495355248       37.1584402370
  H         1.3070285056       -1.0001749935       15.5958116742
  H         0.9642912734       -2.2544996905       16.6689134976
  H         2.5948002841       -2.2205029456       16.0700266194
  H        17.3225201375        1.5375124214       21.9175267879
  H        16.7614654306        1.9975532186       23.5458242326
  H        18.4300674967        2.4541717905       22.8472265464
  C        12.8932324604        7.6197275230       10.2004559649
  N        12.5196633693        8.8827974586       10.0923567201
  O        11.2190909984       10.3903168264       11.1720336757
  S        13.6900605484        6.9750363322        8.7686817864
  C        12.5730807046        9.7940951878        8.9340233700
  H        12.4492422296       10.8459372849        9.2794502403
  H        13.5686826748        9.8809728639        8.4392442402
  C        11.5185549381        9.4884710834        7.8940397153
  H        10.5949111145        9.1919315212        8.3309253039
  H        11.3151887208       10.3964816257        7.2611598434
  H        11.8577142590        8.6845955411        7.1733151757
  H         5.0722263469        1.6105825423       12.5650304705
  C         4.3790134459        2.5178408648       12.5285764425
  H         5.0386944131        3.4076397814       12.7818404425
  C         3.7383337945        2.5235351378       11.1474497390
  C         3.2211160321        2.3780328161       13.5917294207
  C         4.4673911696        3.0418168341       10.0127115375
  H         2.9348610862        3.2293588615       11.1858204155
  H         3.3660841749        1.5233512329       11.0045460125
  H         2.5468524451        1.6514251007       13.2623651352
  H         2.6413144651        3.1796565980       13.6050289386
  H         3.6687998769        2.1955092346       14.5446061369
  C         4.9681690476        1.9529651089        9.1934170098
  H         3.7130398453        3.6379633084        9.4569237548
  H         5.2683050548        3.7720100751       10.3210800793
  C         5.6431049467        2.4378469501        7.9347969513
  H         4.0887277052        1.3481853327        8.9013595100
  H         5.6055602905        1.2709351471        9.7545192929
  C         6.8614247828        3.2516373913        8.2486003679
  H         4.9884415611        2.9564899498        7.3158348006
  H         5.8659628622        1.5233183936        7.2705687904
  C         8.0591107409        2.4160935618        8.8679687779
  H         7.1733172802        3.8668691899        7.3896887358
  H         6.6252581834        4.1057267404        8.8470794578
  C         9.3897727979        3.1810918379        9.1031412772
  H         8.2924114514        1.6345251841        8.1445110366
  H         7.6826605615        1.8838347442        9.7869962984
  C         9.1156702685        4.4502314321        9.8219082918
  C         9.8619491549        3.9043276769        7.8731781890
  C        10.4977809255        2.3307192302        9.7868674097
  C         9.3966815289        5.5930262043        9.0529638244
  C         8.6040849689        4.7823528811       11.1318947244
  C         9.8046494079        5.2268592276        7.7909437051
  C        10.3043578225        3.2667889024        6.7095256994
  H        10.1921569782        1.9490851688       10.7630878376
  H        10.7140853291        1.4092771130        9.2453860737
  C        11.8019293232        3.0498354293        9.9781313584
  S         9.1220899790        7.0469499366        9.8932960915
  C         8.4821822154        6.1262628029       11.2376109354
  H         8.3591906325        4.0199936944       11.8334317065
  C        10.0829044145        5.8513637409        6.5979724293
  H        10.2682665090        2.1592982248        6.6847036334
  C        10.6516711141        3.9106473389        5.5872953233
  H        11.5712948191        3.9933432518       10.5866545845
  H        12.2357399861        3.4497615248        9.0243370514
  C        12.8907754145        2.3555872844       10.8292082414
  C         7.9273481192        6.7968014547       12.4431734743
  C        10.5410852348        5.2404805283        5.4860368050
  H        10.0534284305        6.9482132376        6.4593738361
  C        10.9998455383        3.5518009704        4.3297102130
  H        13.6465841844        3.0879673507       10.7730362635
  H        13.4939128589        1.5816631993       10.3858179181
  C        12.5686907437        2.1836296419       12.2998981920
  C         7.9511726900        8.1943424902       12.6340398579
  C         7.4905266575        5.9666765683       13.6029664737
  C        11.0477005773        5.9763272732        4.2333796266
  C        11.2459220760        4.6196281522        3.4830341399
  S        11.2715147127        1.9690122031        3.6346189505
  H        11.4917339365        2.1206629607       12.5303021021
  H        12.8995687527        1.2343468253       12.6243170437
  C        13.2195876315        3.1104819799       13.3526400255
  N         8.3114174367        9.1474727461       11.7022588659
  C         7.5724420177        8.7618295153       13.8567176449
  C         7.1414600529        6.5455780854       14.8339265804
  H         7.5163443730        4.9151528415       13.5540263942
  C        12.4097139183        6.7946685598        4.3865487578
  C         9.9765267810        6.7859935257        3.3619643590
  C        11.5474012812        4.2228329210        2.2142451815
  C        11.5969582483        2.8597930281        2.1602216315
  H        12.4428282735        3.8562153490       13.5750492370
  H        14.0758584292        3.7042223360       12.9731802873
  C        13.5968034867        2.3551290874       14.5684978995
  S         8.2692080811       10.6158440655       12.4400482889
  N         7.6321220838       10.1300432983       13.8901561999
  C         7.2006758392        7.9986054570       14.9580178075
  H         6.6825245348        5.9006929745       15.5360952116
  H        12.3250044747        7.5092629997        5.1647194164
  H        12.6227001835        7.2578068992        3.4257596179
  C        13.5846538184        5.9357987172        4.6408055156
  H         9.6757872534        7.6632258023        3.8993263802
  H        10.3972176922        7.2391096819        2.4690560044
  C         8.7166241358        5.9690967386        3.1019894504
  H        11.5464031382        4.9876115551        1.4069427404
  C        11.8437058753        2.0451708368        0.9207234286
  H        14.1086469183        1.4425323505       14.3340337677
  H        14.3510751787        2.9975349521       15.0079320296
  C        12.4917880527        2.0262802808       15.5122997979
  C         6.7493292333        8.6693468925       16.1573350835
  H        13.3425458054        5.1308532294        5.2768163533
  H        13.8100459485        5.3742423101        3.6849630896
  C        14.7491236198        6.6854958593        5.2618896967
  H         8.2559641931        5.6425382764        4.0440668423
  H         8.8803793003        5.0549119096        2.5254143763
  C         7.7754461555        6.8548059039        2.2879623401
  C        11.8646443943        0.6146037364        0.7269430860
  C        12.0846833502        2.8533437041       -0.2773698142
  H        12.4617948998        0.9551214199       15.6259556137
  H        11.4944647266        2.4282344263       15.1193775043
  C        12.8543585612        2.5888458155       16.9370881910
  H         6.6870762096        9.7384610189       16.0768289420
  C         6.4233627859        8.1872784900       17.4488203965
  H        14.4616145623        7.2396930824        6.1286334463
  H        15.1117478327        7.4438095886        4.5610595895
  C        15.8518070208        5.6621507124        5.6572646366
  H         7.7844532276        7.8713554869        2.6771041189
  H         8.0306523936        6.9571687750        1.2377209059
  C         6.3200860463        6.3938037679        2.3933742321
  N        11.7467960703       -0.4714836624        1.6807299774
  C        12.0687323954        0.0636362731       -0.5644947404
  C        12.3644838519        2.2718815478       -1.5390125407
  H        12.1858994846        3.9266028004       -0.1803222663
  H        13.9103806398        2.5122010513       17.1653717894
  H        12.3547148456        1.9908928782       17.7082759414
  H        12.6081023625        3.6757471337       17.0846116723
  S         6.2865447284        6.5594298081       17.9690690337
  C         6.4065040763        9.1853508146       18.5317356005
  H        15.5898740992        5.3119288634        6.6262930262
  H        15.8845490795        4.8079320584        4.9779479892
  C        17.2125452796        6.3679263008        5.6945410590
  H         6.0104985424        6.9107860971        3.2902718989
  H         6.2115048148        5.3287489022        2.5591159086
  C         5.4283845238        6.8592241325        1.2457703534
  S        11.5729936999       -1.8753088661        0.9253376438
  N        11.9655178733       -1.3005240895       -0.5443002641
  C        12.5002828069        0.8194903626       -1.6764503531
  H        12.5291036726        3.0713374805       -2.3180853441
  C         6.2048697211        7.1803977641       19.6203727493
  N         6.2272627139        8.5349835027       19.6760630070
  O         6.5364269705       10.3610411378       18.3342623705
  H        17.7764855453        6.1841505042        4.8184844964
  H        17.0871747122        7.4381909988        5.4919155723
  C        17.8562902825        6.1419668137        6.9848482007
  H         5.9355825512        6.9012068859        0.3152576345
  H         4.7259934826        6.0081775175        1.0084541641
  C         4.7165594060        8.2369841134        1.4504027603
  C        12.7113275904        0.1505689429       -2.9045469542
  S         6.0553798515        6.2081620803       21.0744153490
  C         6.0524513488        9.2475154587       21.0247721336
  H        17.2548165728        6.8145781155        7.6526551735
  H        17.6509945503        5.1642964820        7.2142824671
  C        19.3666161586        6.4453971481        7.1094776348
  H         5.0479849998        8.7732026823        2.3971410672
  H         3.6461225493        7.8846935734        1.5963147400
  C         4.8636546632        9.1076427802        0.1981863591
  H        12.5345026818       -0.9630161933       -2.9624454734
  C        13.3333447556        0.5089510063       -4.0923677225
  H         5.4493722759        8.6899621788       21.6506089689
  H         5.5032866922       10.2003035881       20.9435214830
  C         7.3869108012        9.3451214127       21.6204012264
  H        19.7241430806        6.1976162834        8.0945294071
  H        19.6813125350        7.4763838233        7.0699943651
  C        20.0519764589        5.5898859361        6.0637262305
  H         5.9126652995        9.0152575580       -0.0572394177
  H         4.1896468141        8.8338189000       -0.6566727654
  C         4.7311614238       10.6369440157        0.4940588786
  S        13.9236607723        2.0522603639       -4.5048140947
  C        13.4798556406       -0.5249246352       -5.2179183958
  H         7.3271645754        8.9019131413       22.6187130862
  H         7.6611846258       10.3807457766       21.7898269746
  H         8.1352793939        8.7747215987       21.0858360306
  H        19.6091996131        4.6063065494        5.8368975018
  H        20.1400404823        6.1412614389        5.0859045690
  H        21.0635103012        5.5247310958        6.3623967214
  H         5.5576673380       11.0147237423        1.0828469867
  H         4.6386590228       11.2411283092       -0.4044029089
  H         3.7851478674       10.7698733556        1.0477262514
  C        14.5133871412        1.3096727879       -6.0194550301
  N        14.1759910397       -0.0026353080       -6.2378713009
  O        13.1544531389       -1.6933401149       -5.2138387133
  S        15.1557990843        2.1751668938       -7.4822914674
  C        14.1618721691       -0.6382424941       -7.5768329731
  H        14.2785438545       -1.7585060035       -7.4362840654
  H        15.0542028270       -0.3490874714       -8.0373840237
  C        12.9177873898       -0.3631088080       -8.3424073355
  H        12.4796126097        0.7039401081       -8.1989329703
  H        12.2359097680       -1.1046058995       -8.0324771084
  H        13.1942912619       -0.5598721920       -9.3771460504
