352
 i =    19100, time =     9550.000, E =       100.9320284701
  H        10.3402441888        4.3988913604       31.5250456979
  C        10.5882267473        5.3071027234       32.0063388042
  H         9.5837716867        5.7416712478       32.0265224657
  C        11.5053164697        6.1678124746       31.0865449497
  C        11.1914339054        5.0347216884       33.3855495424
  C        11.6352412946        5.6171099693       29.6464777875
  H        10.9481608058        7.0774864497       30.9579247667
  H        12.5345789456        6.2603958115       31.5927232341
  H        11.4007479033        5.8732304945       34.0268114177
  H        10.4952863292        4.3896881328       34.0167951015
  H        12.1781022419        4.5031498657       33.3947542703
  C        10.4046583165        5.5508764731       28.7690515819
  H        12.1385567024        4.6641326596       29.8364215465
  H        12.3575537222        6.2800793015       29.1169795655
  C        10.8287751790        5.3827538751       27.3244990418
  H         9.6449945138        4.8138110212       28.9569234047
  H         9.9324872541        6.4846887580       28.7386435551
  C         9.7823350841        4.7417768054       26.4653354662
  H        11.6772801854        4.7391406719       27.3346900688
  H        11.2062792971        6.2045210646       26.8023684960
  C         8.4166851944        5.5790747330       26.3071660364
  H        10.1869062469        4.4628374472       25.4273671488
  H         9.5159432343        3.8060547910       26.8155193121
  C         7.2461573402        4.9413747628       25.5444461839
  H         7.9529018417        5.8501308977       27.3124130672
  H         8.6287192684        6.5331916937       25.7875548304
  C         6.9493920291        3.6305020050       26.2380490831
  C         7.6448195241        4.3034070013       24.2575549293
  C         6.0616318231        5.9053042043       25.4501310330
  C         7.1573770699        2.5415020284       25.4152480475
  C         6.3794608053        3.2353466825       27.5192615852
  C         7.5879741864        2.9714859614       24.1666688176
  C         8.1569190393        4.9230171626       23.1317939733
  H         6.3789401611        6.5999441013       24.7012208506
  H         6.0234353239        6.4545973079       26.2978222753
  C         4.7486057478        5.2684923939       25.1067657782
  S         6.7927719235        1.0303642743       26.1983593674
  C         6.3297670884        1.9088970007       27.6373177966
  H         6.2180171060        4.0324679559       28.1868385533
  C         7.9867279215        2.2943855906       23.0137668523
  H         8.1730712718        5.9940672120       23.0819936057
  C         8.5829329676        4.2865988779       21.9855225965
  H         4.8419505697        4.6866844925       24.1666274143
  H         4.4573402083        4.6010518747       25.8806066657
  C         3.6927731570        6.3496401932       24.9874539641
  C         5.8776012551        1.1658885985       28.8938108910
  C         8.5188447616        2.9641821527       21.8876940209
  H         7.9212852433        1.2814038192       23.1203841508
  C         8.9522718485        4.6519680595       20.6738153407
  H         2.9276016972        5.9643851479       24.2516073483
  H         4.2025640167        7.2043553770       24.5472482410
  C         3.1039734646        6.6926871762       26.3276118017
  C         5.8980713833       -0.2660339755       29.0939583624
  C         5.4467888167        1.9615854230       30.0773588599
  C         8.7897929221        2.2620025640       20.5531901047
  C         9.0372658920        3.5782558934       19.8274426707
  S         9.3066968147        6.1242247956       19.9458241183
  H         2.4830151988        7.5838969427       26.2525918417
  H         3.9810373024        6.9776974701       26.9181338048
  C         2.1276814096        5.5795139749       26.8133499448
  N         6.1169590136       -1.2121835373       28.0977097569
  C         5.6223024175       -0.7824050026       30.3498279222
  C         5.2339917856        1.4878650465       31.3580881816
  H         5.3413343545        2.9968283063       29.8741961519
  C         7.5757375147        1.4472762653       19.9423131508
  C        10.0964152895        1.3773224535       20.6001014920
  C         9.3184627947        3.9883882236       18.5167769317
  C         9.5118325278        5.3160728950       18.4451992562
  H         1.1813015062        5.9142853383       26.3850901770
  H         2.3472099104        4.5796317813       26.3953086523
  C         2.0082364933        5.4579190732       28.3708521177
  S         5.8858722069       -2.6986862435       28.7539603172
  N         5.6228412113       -2.1716306205       30.2741481311
  C         5.3187947948       -0.0053607333       31.4617661346
  H         5.0726340312        2.1808881809       32.1248638963
  H         7.0233411322        0.7517467978       20.6658459674
  H         7.8396444221        0.7227864588       19.1919644599
  C         6.4830736140        2.3458526043       19.4622101230
  H        10.2548974853        0.8569074032       19.6852335028
  H         9.8873368414        0.6597552641       21.3856898950
  C        11.3799083299        2.2036148478       20.9803614567
  H         9.4581347783        3.2902080347       17.6885829328
  C         9.9066646811        6.0330667442       17.1920089077
  H         2.5223489966        6.2831751785       28.7704553845
  H         2.7526843829        4.6650844982       28.7893551621
  C         0.4838037647        5.4250977538       28.8481584425
  C         5.2202593667       -0.7453383246       32.6755545551
  H         6.8257292111        2.9013138545       18.6154667587
  H         6.2075055325        3.0615625735       20.2157562132
  C         5.3121111465        1.5843824353       18.8730772935
  H        11.1619050268        2.8779597663       21.7804921869
  H        11.7010082971        2.7490446266       20.1111685097
  C        12.4326843781        1.2181138219       21.4658659845
  C         9.8954351842        7.4637658860       17.0846493219
  C        10.0904602540        5.2167746286       15.9536129836
  H        -0.0583282444        6.3484582533       28.4455534720
  H         0.0969793088        4.5051997428       28.3699360808
  C         0.5328975657        5.3910882457       30.3576481366
  H         5.1297707779       -1.8535541782       32.5892463439
  C         4.7909467246       -0.2801836962       33.9126777904
  H         4.8616955905        0.8937521864       19.5845423999
  H         5.6789634880        0.9938388526       18.0309477844
  C         4.2345430281        2.4428081829       18.2946580095
  H        12.2288960185        0.6922631046       22.3925452501
  H        12.4791472557        0.3876791380       20.7253827798
  C        13.7648849106        1.8671589836       21.6190941022
  N         9.6819803868        8.4102481797       18.0768019509
  C        10.2626447542        8.0656725902       15.9137177532
  C        10.4842076781        5.8612726805       14.7397189574
  H        10.0322117553        4.1872042005       15.9803614536
  H         0.0482463793        4.5055113589       30.7559559985
  H         1.5534912326        5.4267313172       30.8087029434
  H         0.0385611353        6.1222667491       30.9647139168
  S         4.4232440914        1.3092645769       34.4048622936
  C         4.8173958900       -1.2643116251       34.9903460773
  H         4.1774590681        3.3583063060       18.9528554428
  H         4.6468014101        2.7954768844       17.3019987610
  C         2.8199771467        1.7991452538       18.2259646592
  H        13.9709314277        2.7231613276       21.0704463792
  H        14.5438416473        1.1843489711       21.3217999362
  C        14.0594085762        2.1989326468       23.0878719368
  S         9.7072411983        9.8797546832       17.4331866050
  N        10.2331250605        9.4544482283       15.9716100991
  C        10.6094003520        7.3587620237       14.7580440173
  H        10.7882326741        5.2504026368       13.8809184363
  C         4.2133189055        0.6643983739       36.0427303590
  N         4.4601766568       -0.6441103999       36.1651032750
  O         5.0575682114       -2.4318139914       34.8882104036
  H         1.9825798714        2.3856910137       17.9164610912
  H         2.6064139937        1.3975579501       19.1720858129
  C         2.7612086004        0.6628984504       17.2211979176
  H        13.2913227014        2.8998484262       23.3556077258
  H        14.0198095402        1.3707848745       23.7745626850
  C        15.3707829698        2.9060081547       23.3788860582
  C        10.9136736099        8.1611310402       13.6646287328
  S         3.7520982185        1.6515527759       37.3999585366
  C         4.4362270394       -1.3478507273       37.3856811391
  H         2.3713664994        1.0968087821       16.2905228268
  H         3.7352807383        0.3721403223       16.9562967604
  C         1.7469286985       -0.4703283572       17.6584465800
  H        15.3401757502        3.3711136511       24.4168936345
  H        15.2992365725        3.9107476715       22.8079747732
  C        16.6283134677        2.0785619794       23.1401829446
  H        10.1910952197        8.9079575745       13.5313490895
  C        11.4537040655        7.9690947046       12.4041014542
  H         3.7556448546       -0.8280904564       38.0393999249
  H         3.9609607877       -2.2777676704       37.2923554414
  C         5.7954467208       -1.6014035734       37.9429344408
  H         0.8324219635        0.1203056324       17.7149728066
  H         2.1004371007       -0.7360633014       18.6712425466
  C         1.8371960840       -1.7228160447       16.6939471296
  H        17.4339370057        2.5223646872       23.8176317297
  H        16.5768863499        1.0209128238       23.4580217879
  C        17.0154088905        2.1240820584       21.6704829106
  S        12.2529379070        6.5067242846       11.8384483236
  C        11.3791804524        9.1174549772       11.4437516122
  H         6.1759961370       -2.4311412940       37.3433844613
  H         6.4533672676       -0.7445232635       37.8809469956
  H         5.7423186898       -1.8320384720       39.0134681282
  H         1.6429182722       -2.6599518148       17.2166152724
  H         2.7620312160       -1.9087793067       16.2061654632
  H         1.1061452455       -1.6351255066       15.9676197427
  H        16.7251145894        1.2213777648       21.0926172307
  H        18.0938342820        2.3177863956       21.5841769371
  H        16.6700803450        2.9508516555       21.0295395175
  C        12.7067705950        7.5281336160       10.4776661597
  N        12.1489121250        8.7492027558       10.4314859866
  O        10.8673564206       10.2249357014       11.6401359507
  S        13.6847249141        6.8047435562        9.1587563659
  C        12.2541978826        9.4957870223        9.1483637757
  H        12.0556327890       10.5631400965        9.3556326236
  H        13.1877711737        9.4744416539        8.6481907920
  C        11.0720141586        9.2030406501        8.2766987572
  H        10.7404425401       10.0231663572        7.7526055923
  H        11.2301960445        8.2939255948        7.6310905460
  H        10.2682275414        8.9628778285        8.8827582430
  H         4.8874122103        1.5473437683       12.8483109929
  C         4.3288553898        2.5215154778       12.9547490702
  H         5.0792087118        3.3248393229       12.9939876605
  C         3.4096548452        2.8396955816       11.7646384922
  C         3.5919503890        2.4384192284       14.3149763176
  C         4.3135775529        3.1156529861       10.5764743643
  H         2.9966096980        3.8158828485       11.9642380974
  H         2.5975021363        2.1572678232       11.6211029553
  H         2.5391307026        2.7083351952       14.1550000524
  H         4.0644358532        3.2527993318       14.9383017535
  H         3.6871659915        1.4129910259       14.6520124486
  C         4.6226890811        1.8149816699        9.7791210473
  H         3.7050386492        3.7141436978        9.9063897288
  H         5.1850835519        3.6462326570       10.9910379857
  C         5.1986471296        1.9825811225        8.3496719476
  H         3.6716488367        1.2412794887        9.6641128462
  H         5.2920924476        1.1238435425       10.4057840713
  C         6.5192057479        2.7412637300        8.3629878528
  H         4.5219361846        2.3948072132        7.6107625187
  H         5.3404015105        0.9839391930        7.9216477295
  C         7.7715772869        2.0123461410        9.1243263115
  H         6.9226467355        2.7408135123        7.3963572657
  H         6.3975273801        3.7482674546        8.7218450589
  C         8.9980343025        2.8670283595        9.2929531701
  H         8.1645321478        1.0751364021        8.7040153724
  H         7.5099145640        1.7739978473       10.1469144786
  C         8.6679143868        4.1761085395        9.9332106655
  C         9.4050355069        3.5246327588        8.0120389062
  C        10.1576549106        2.2209834260       10.0329520033
  C         8.9041382007        5.2852220114        9.1054919024
  C         8.2445254520        4.5605623813       11.1698304717
  C         9.3447018222        4.8588167503        7.8521936514
  C         9.9122162623        2.8713304450        6.8537701352
  H         9.7393274789        1.9093778510       11.0082218276
  H        10.3657332179        1.3098259465        9.4973226385
  C        11.3781100306        3.0970910770       10.3762676408
  S         8.3722661060        6.7649746647        9.8101318149
  C         8.0315788383        5.8853854187       11.2587878038
  H         8.0378811114        3.8275521577       11.9379743597
  C         9.6629498432        5.4409300669        6.6445095398
  H         9.9562597287        1.7767484904        6.9696566397
  C        10.2720837023        3.4704996503        5.6590930985
  H        11.1962931444        3.9749060002       10.8972129945
  H        11.7941523673        3.3611923765        9.3938158363
  C        12.4282175752        2.4996785799       11.2736009712
  C         7.5339731944        6.5327672270       12.5019643299
  C        10.0907640498        4.8096563063        5.4775368360
  H         9.6609749612        6.5239500421        6.6899476843
  C        10.6953756745        3.0812041457        4.4217563812
  H        13.1515945322        3.2822008951       11.2809231167
  H        12.9942419859        1.6682910740       10.8244417965
  C        11.9558240373        2.3105870998       12.7483415937
  C         7.5336441569        7.9346378705       12.7466176572
  C         7.0164515925        5.7123505581       13.6618636942
  C        10.6093803241        5.5077516819        4.2674087590
  C        10.8319290048        4.1332081516        3.5735854741
  S        11.1040665542        1.6002026394        3.6793085987
  H        11.3786449199        3.2335054057       12.9472844020
  H        11.2624448499        1.4705265153       12.8652286735
  C        13.1221737491        2.1068602036       13.7582755374
  N         7.8202739678        8.9082481849       11.8275434076
  C         7.2654924749        8.4605446327       14.0258616215
  C         6.7503704261        6.2534649841       14.8892332894
  H         7.0700802050        4.6507081377       13.5876079811
  C        11.9935801955        6.2281188087        4.5331617379
  C         9.5841940341        6.4593970956        3.5663425946
  C        11.3192635439        3.7401650360        2.2968303566
  C        11.3761309066        2.3854031016        2.1780878637
  H        13.4811944306        3.1156232430       14.1458073356
  H        14.0184325723        1.6658957486       13.3396568947
  C        12.8622712963        1.2082625583       14.9696929360
  S         7.8204048624       10.4207775145       12.5586320893
  N         7.5016509259        9.7998473721       14.0722142444
  C         6.9607694568        7.6778441336       15.1739632568
  H         6.5227959878        5.5812455368       15.6762625427
  H        11.7963352821        7.1523890814        5.0436798677
  H        12.3992113420        6.6555942274        3.6344491858
  C        13.0435190323        5.5882757759        5.4381277597
  H         9.2483890606        7.3040015403        4.2538420840
  H         9.9755261642        7.0641353508        2.7137679480
  C         8.3830690683        5.6599793771        3.1105916663
  H        11.5321131547        4.3859848768        1.4258240748
  C        11.7480255444        1.6366084628        0.9148199208
  H        12.4370437582        0.2867579171       14.5814693290
  H        13.8141442477        0.9498579040       15.3896809234
  C        11.9932681596        1.9395197307       16.0184963372
  C         6.7806724979        8.3791356326       16.4502407507
  H        12.6843133151        5.4753065462        6.4186491086
  H        13.3309237244        4.6813236087        4.8700021946
  C        14.3191258949        6.3864495750        5.5247531034
  H         7.9707801822        5.1834396004        4.0046187038
  H         8.6599666248        4.8501907111        2.4210088956
  C         7.2689551290        6.5368464629        2.4981187149
  C        11.8964994319        0.2304599242        0.7905669600
  C        11.9690479998        2.3835903855       -0.3093141071
  H        11.2814591130        1.2638001572       16.4881179714
  H        11.3825861934        2.6390819318       15.4973560340
  C        12.9086436057        2.6159316021       17.0784295723
  H         6.9636046036        9.4324049469       16.3814048490
  C         6.5507769860        7.9595345584       17.7674299088
  H        14.0272587593        7.0939728008        6.3246851632
  H        14.4916838985        6.9850947716        4.6207336428
  C        15.4540906619        5.5733091701        6.0896519660
  H         6.9667393034        7.3268034571        3.2360882680
  H         7.7111543119        7.0804826378        1.6679493058
  C         6.1613087107        5.8237829699        1.8076447368
  N        11.6730512096       -0.6747544397        1.8177497132
  C        12.1468367771       -0.4588755932       -0.4021279055
  C        12.1623032073        1.6918204665       -1.5298742156
  H        11.9466153095        3.4869532559       -0.3868014698
  H        13.7674397119        3.1471040728       16.5229497316
  H        13.2685203701        1.8538845199       17.7249858595
  H        12.4087914241        3.4442289848       17.5799181696
  S         6.1376686356        6.2963941298       18.1865538924
  C         6.6319221181        8.9371520588       18.8738747451
  H        15.2023148071        4.8810787319        6.8646911089
  H        15.8608399356        4.9203067096        5.2782065610
  C        16.5728856463        6.3852093121        6.7288976779
  H         5.5319187111        5.2098748924        2.4419382399
  H         6.5512237692        5.2087883498        0.9824475907
  C         5.1686740217        6.7525276658        1.1178319516
  S        11.7836604779       -2.1344028220        1.2358510873
  N        12.2338908859       -1.8238030404       -0.2615639808
  C        12.3087998434        0.2069117525       -1.6268583102
  H        12.2533667057        2.1937393482       -2.4620773870
  C         6.0811841935        6.8915950222       19.8470304141
  N         6.2380587905        8.2473422683       20.0045042698
  O         6.8527694156       10.1713151901       18.7341888411
  H        17.1114417603        7.0838760336        6.0735178497
  H        16.2262151891        6.9647337118        7.5428390156
  C        17.5839820299        5.3771525311        7.2084131754
  H         5.5700598982        7.0737056810        0.0933287376
  H         4.2935360768        6.1218226743        0.9450245225
  C         4.5489560241        7.8941649190        1.8775018650
  C        12.7100846158       -0.4809828566       -2.8085667993
  S         5.6088439480        5.9941328474       21.2496684237
  C         5.9427814450        9.0550269548       21.2005928723
  H        17.1477106143        4.9254116206        8.1099228245
  H        17.4666396686        4.3590031678        6.6297738307
  C        19.0233532132        6.0156656925        7.3927066991
  H         5.4320810730        8.3628283433        2.3190217923
  H         4.0667742264        7.4940548858        2.6938123465
  C         3.7343080270        8.9156118732        1.0362150483
  H        12.5635832638       -1.4760548015       -2.7221803397
  C        13.2085156627       -0.0924594724       -4.0371594456
  H         5.0313636441        8.8549219409       21.8005347252
  H         5.7124225565       10.1061314621       20.9303282824
  C         7.1551546208        9.1231079631       22.1999913593
  H        19.6883016841        5.3169521964        8.0051148580
  H        18.7215533324        6.9256478809        7.9262165051
  C        19.7079934913        6.2031070022        6.0641949499
  H         4.4166425939        9.4076735286        0.3863850749
  H         2.9832151364        8.4365000676        0.3990464740
  C         3.0980847064        9.9031228009        2.0157440185
  S        13.6345925405        1.5007815504       -4.6374649892
  C        13.2495507321       -1.1501052489       -5.0740819931
  H         7.0863143018        8.5221870980       23.0983575384
  H         7.3292826536       10.1918854198       22.5330490779
  H         7.9541505868        8.8102399831       21.5655150263
  H        20.2449684438        5.3449592390        5.6291413267
  H        18.9812677108        6.5297774958        5.3326926456
  H        20.5092847101        6.9228326063        6.1165311246
  H         3.6519821966        9.8536478591        2.8470078986
  H         3.0110034949       10.8403777895        1.4788714326
  H         2.1148126422        9.5040942875        2.1704337049
  C        14.0214134823        0.6674151635       -6.1843026399
  N        13.8490103967       -0.6995104370       -6.1608721828
  O        12.8763333350       -2.3134317791       -4.8766663655
  S        14.8243483433        1.2848755827       -7.5212224756
  C        14.0573682681       -1.6101705668       -7.2921765270
  H        14.2814918895       -2.5785185361       -6.9699307907
  H        14.9428345453       -1.3727892491       -7.9588384846
  C        12.8438163996       -1.6360908972       -8.2184645352
  H        12.7961234251       -0.7204622385       -8.7786951387
  H        11.9122085308       -1.8048871371       -7.6230920527
  H        12.8811128468       -2.4702900443       -8.8711983958
