352
 i =     8500, time =     4250.000, E =       152.9378279340
  H        11.4788726742        5.1697861611       32.5428410552
  C        10.6011464545        5.7506918372       32.1484231663
  H         9.7474464944        5.0462023979       32.2846288322
  C        10.8882763583        6.2322019420       30.8308886524
  C        10.2768305119        6.8819238916       33.1124509842
  C        10.7226608217        5.2455127715       29.7218969114
  H        10.3505670603        7.1424860421       30.6852139073
  H        11.9193152015        6.6119840238       30.8496195306
  H        10.7244956347        7.8810106951       32.8951762742
  H         9.2114374711        6.9724417509       33.0815739164
  H        10.6558779164        6.6738809558       34.1968012619
  C        11.0670132165        5.9445402239       28.4175527135
  H         9.7411404427        4.8881338373       29.7120854384
  H        11.4627986152        4.4250586914       29.8245277043
  C        11.1224241843        5.1652483683       27.1328059633
  H        10.3877984488        6.8156746627       28.3138987805
  H        12.1073600177        6.3067399862       28.4244441377
  C         9.6204803163        4.7129481112       26.7432775546
  H        11.8433157522        4.3334976396       27.1809720304
  H        11.6921454566        5.7348072126       26.5337293138
  C         8.7025453840        5.7629582619       26.1760468751
  H         9.7308480587        3.8639783477       26.0371982833
  H         9.1080374009        4.4836362458       27.6707302048
  C         7.4831523613        5.0875289195       25.3783886520
  H         8.4169545102        6.4355535294       26.9472849854
  H         9.2551794540        6.2451731100       25.3504491608
  C         7.0533295686        3.7540538594       26.0913578798
  C         7.9366123592        4.4149105034       24.1531332138
  C         6.2735496902        6.1166372232       25.3350230744
  C         7.2255050597        2.7008903534       25.2832277727
  C         6.5561813199        3.3937176473       27.2936551774
  C         7.6641470807        3.0256849978       24.0079365509
  C         8.3496488004        5.0067421418       22.8980679046
  H         6.5668649285        6.9843216523       24.7242456092
  H         6.1741361760        6.4915496409       26.3590083068
  C         4.9889424852        5.4378080279       24.7638062372
  S         6.7676308877        1.1794013416       25.8740023172
  C         6.3552324107        2.0552990637       27.3572314630
  H         6.4689500550        4.0998192713       28.0593087857
  C         7.9511988095        2.3537574297       22.8097930439
  H         8.5420754759        6.0483164797       22.8250988478
  C         8.5504301103        4.3577868881       21.7507514450
  H         5.2851777667        4.7191329328       24.0259732219
  H         4.6049405494        4.8198650479       25.5958626365
  C         3.8934844721        6.4866252767       24.2156641652
  C         6.0073252564        1.3745511959       28.6142343602
  C         8.4223592372        3.0065843469       21.6172780514
  H         7.6959330177        1.2501938744       22.7142317559
  C         9.0320016745        4.6888010828       20.5173659814
  H         3.2081710954        6.0635803401       23.5409629628
  H         4.4814046699        7.3523082714       23.7127938383
  C         2.9634462292        6.9324836981       25.4302055963
  C         5.9849276330       -0.0455539249       28.8674275450
  C         5.4353226698        2.1700432663       29.7600638492
  C         8.8343643184        2.3456297450       20.3344281005
  C         9.1365291873        3.6409571861       19.5868896000
  S         9.4294613803        6.2722038340       19.8418001212
  H         2.3797761742        7.8266026285       25.1445629797
  H         3.4929589766        7.0330758998       26.3445442165
  C         2.0557050835        5.7448885806       26.0567913101
  N         6.3493309087       -1.0304697836       27.9756181249
  C         5.6010771405       -0.5778056376       30.0882129037
  C         5.1496179510        1.6571092329       31.0179828886
  H         5.0185867664        3.1088324857       29.4330208076
  C         7.7952404625        1.5546271102       19.5118176121
  C        10.2018808716        1.4791814117       20.4675304522
  C         9.3811824982        4.1531748228       18.3172418554
  C         9.5640400666        5.5135378442       18.2914624165
  H         1.3749745131        5.3974041666       25.3980490672
  H         2.6452748629        4.8279246050       26.2140367538
  C         1.4402463262        6.2178866844       27.3660219289
  S         6.2681563573       -2.4898603391       28.6170395394
  N         5.7829070216       -2.0545919327       30.0940539595
  C         5.3532047777        0.1934392760       31.2217861495
  H         4.6518020734        2.3035867384       31.7825985833
  H         7.8342062461        0.5813976385       19.9123190393
  H         8.0781804579        1.3741746240       18.4658218421
  C         6.5165916543        2.3058061298       19.3712333478
  H        10.4280349262        1.0296366845       19.5174112206
  H         9.9750569950        0.6877129782       21.1597857168
  C        11.3898834023        2.2241919084       21.1195644521
  H         9.5080725240        3.5393580043       17.4676528544
  C         9.9413422490        6.3186206423       17.0052617076
  H         0.3770990703        6.2334075233       27.0172386411
  H         1.6631784732        7.2441997434       27.6804060748
  C         1.7225366467        5.2975662119       28.4941177119
  C         5.1588860819       -0.4637769815       32.4213718019
  H         6.5671387604        3.2451707260       18.7581390362
  H         6.1138969029        2.5021767504       20.3208787340
  C         5.4967683518        1.3086199606       18.7736649577
  H        10.9908969046        2.6965197262       22.0235893035
  H        11.7350190736        3.0669235945       20.4282084863
  C        12.4163144874        1.1763322722       21.3695156795
  C        10.0544878241        7.6835282104       16.9751763147
  C        10.2061463279        5.6280888003       15.7154512933
  H         0.8507485458        4.6521520676       28.7627777760
  H         2.7206929007        4.8046009765       28.2964563937
  C         1.8163056018        5.9335843557       29.8522014520
  H         5.2879312624       -1.4928296914       32.3151355761
  C         5.0053915597       -0.0076094531       33.7170799072
  H         5.3665209773        0.3559220842       19.4185941556
  H         5.6724202073        1.0022750583       17.7544654144
  C         4.0638898923        2.0637424732       18.6180498530
  H        12.1253836672        0.4061770452       22.1437992227
  H        12.4182273409        0.5313688519       20.5228675295
  C        13.7925713984        1.8688572932       21.5001312397
  N         9.8169792845        8.5356843230       18.0212356430
  C        10.4017691586        8.3689973668       15.8706901819
  C        10.4699380590        6.3544157035       14.6211206422
  H        10.0559234624        4.5245273314       15.6214439996
  H         1.7088012276        5.2427922109       30.7046088721
  H         2.7433761951        6.5131174001       30.1671325566
  H         0.9209091820        6.5755426822       29.7574666230
  S         4.6668048126        1.6252979086       34.2496702348
  C         4.7963771047       -1.0499268191       34.7917560495
  H         3.8990390947        2.6919760343       19.4387193360
  H         4.0653776624        2.7936265896       17.7246096114
  C         2.9243822343        1.0746526029       18.5487657339
  H        13.8600119262        2.6666133504       20.7666413103
  H        14.5150926466        1.1553943560       21.4161452841
  C        13.8781753724        2.5167090983       22.8440760815
  S         9.9307619687       10.0886468620       17.5974911014
  N        10.4256550158        9.7680494210       16.0574591432
  C        10.7480698823        7.7717905130       14.6160131911
  H        10.6567129867        5.7282653499       13.7588735709
  C         4.4490036102        0.8687582431       35.8145556132
  N         4.4125623667       -0.4770627696       35.9016882063
  O         4.8961290308       -2.2353030228       34.5812945912
  H         2.0273976601        1.6631658212       18.6818712246
  H         2.8834138299        0.4765559074       19.4181286261
  C         2.9694279929        0.2966695431       17.2351971172
  H        12.9987246877        3.1057728876       23.0906511026
  H        13.8384513450        1.7396592204       23.6558023606
  C        15.0922995895        3.3861175639       22.9005536774
  C        10.9140005370        8.5088067547       13.4687159925
  S         4.0952304515        1.8021119800       37.2678429799
  C         4.1321049714       -1.2886280153       37.0712239536
  H         2.0259834706        0.4222573492       16.5664827735
  H         3.8432484438        0.4304764524       16.6283470253
  C         2.9657265999       -1.1871443701       17.5415294219
  H        15.0198621535        4.0139411338       23.7339104304
  H        15.1411399783        3.9144799822       21.9322157973
  C        16.4008052908        2.6331852424       23.0244375908
  H        10.5857822025        9.5820675098       13.4860988012
  C        11.4414923470        8.1632909632       12.2726495208
  H         3.3771880693       -0.9549300416       37.7181168273
  H         3.8632680366       -2.3295503965       36.8593926041
  C         5.4024379775       -1.4065312396       37.8925622067
  H         3.8556766283       -1.5542110153       18.0368687352
  H         3.0194588906       -1.6354576415       16.5892730341
  C         1.6926691540       -1.5571969715       18.3584970772
  H        16.9206939688        2.7608785700       23.9217635703
  H        16.1438481188        1.6108494867       22.8974579258
  C        17.4347313862        2.9761104905       22.0272180815
  S        12.2916114460        6.7142603673       11.9269472620
  C        11.4202924657        9.1964207513       11.1024457316
  H         5.9569896148       -0.4445676814       37.9515215374
  H         5.1149485395       -1.7551777557       38.9225975345
  H         5.8999921470       -2.2482254163       37.5620147250
  H         1.1761899659       -2.4191092644       17.9685891090
  H         1.0457432338       -0.7297041319       18.3693009384
  H         1.8674653738       -1.6822250267       19.3969956346
  H        17.6588880305        3.9911065502       22.2013716633
  H        16.9631495646        3.0414193994       21.0792255639
  H        18.2473098661        2.3138330185       22.0516963860
  C        12.4030191922        7.3856370442       10.2741348949
  N        11.9851961319        8.5955383452       10.0475007460
  O        10.9078381364       10.2528790553       11.2219626794
  S        13.2489593823        6.6317786138        8.8737117541
  C        12.1546520598        9.4269942660        8.8104181218
  H        12.4070619365       10.3945446559        9.0456451749
  H        13.0034220977        9.2300006615        8.2163447173
  C        10.8314172438        9.6342534392        8.0781637563
  H        10.7028511644        8.8743635565        7.2828587524
  H         9.8767451940        9.6414939837        8.7304698297
  H        10.7780725720       10.6470659833        7.8271771969
  H         4.4834222907        1.5167706446       12.9553932788
  C         4.0606051710        2.4779362856       13.0570958291
  H         4.9280412461        3.0688382810       13.3226152155
  C         3.4920222422        2.8513825615       11.6437934263
  C         2.9875075120        2.3099114587       14.0539724783
  C         4.5645590451        3.0074956990       10.4896461012
  H         3.0853014911        3.8513733176       11.7519763397
  H         2.6398856084        2.1952094340       11.3677493475
  H         2.5244709681        1.3394328441       13.8694824033
  H         2.2055768888        3.1249512917       13.9247417881
  H         3.2982739717        2.3514907144       15.1559349326
  C         5.1715103692        1.6254241172       10.1483174837
  H         4.2407672211        3.5315175445        9.5997372896
  H         5.3222508458        3.7037180474       10.8352638623
  C         5.5848953704        1.4932064629        8.6571352699
  H         4.4940093863        0.7580187549       10.4597349811
  H         6.0310166532        1.4044619700       10.7943111267
  C         6.8472821181        2.3469484562        8.3807041007
  H         4.7442583915        1.9850025454        8.1610414016
  H         5.7757162948        0.4645782241        8.3812045272
  C         8.2246844456        1.8243730687        8.8040244716
  H         6.7587338544        2.7947005266        7.3309266038
  H         6.8331378972        3.1794712990        8.9061666792
  C         9.3101077245        2.8104663116        9.0910584940
  H         8.5904434910        1.0186460068        8.1739072518
  H         8.0572793885        1.2862410677        9.8387146697
  C         8.8884404972        4.1745911683        9.7520895478
  C         9.7921215583        3.5979960034        7.8927759798
  C        10.3927953234        2.2109571406        9.9741356231
  C         9.2293198046        5.3357526384        9.0434562031
  C         8.2715307153        4.5238696987       10.9148951072
  C         9.7831411953        4.9765668824        7.8761916558
  C        10.2094450449        3.0070887778        6.6936815657
  H        10.0025461806        1.8222341647       10.9678712234
  H        10.8056917330        1.3562994038        9.5229348935
  C        11.7246884783        2.9716546804       10.0596327273
  S         8.8407391844        6.8561620160        9.8474144260
  C         8.1949728374        5.9006151763       11.1596730587
  H         7.9942145718        3.7495482477       11.5644540152
  C        10.1491699960        5.7054597565        6.7435779716
  H        10.3202082565        1.9354992408        6.5982175087
  C        10.5318144752        3.6755554151        5.5730385791
  H        11.5895369618        4.0875029636       10.2076353671
  H        12.1564772109        2.8449027121        9.1280083252
  C        12.6715410325        2.5786813002       11.2067979152
  C         7.6956669794        6.4864113996       12.4564463258
  C        10.5949656084        5.0671020611        5.5550310794
  H        10.0129342939        6.7491867582        6.6173785408
  C        10.8774476865        3.3670592896        4.2971581842
  H        13.5620828340        3.2538213220       11.1474367407
  H        12.9674600821        1.5263457003       11.1096273839
  C        12.1068012093        2.7041499590       12.6177932803
  C         7.6768581909        7.8152146061       12.7855722476
  C         7.3071817319        5.5472416214       13.6168797164
  C        10.9917839820        5.7719562840        4.2416349234
  C        11.1179047692        4.4510988868        3.4964680105
  S        11.0121649538        1.8889261286        3.5599754943
  H        11.7577636909        3.7186629453       12.8338993707
  H        11.1980108840        2.1229493484       12.6900257088
  C        13.0928956220        2.1842412162       13.7098888456
  N         8.0149798539        8.8551366076       11.8780565981
  C         7.3351411194        8.2332740893       14.0531270682
  C         6.7634446317        6.0125643198       14.8113560874
  H         7.1254027639        4.5755554927       13.3181381675
  C        12.3665861457        6.4329778958        4.4445869338
  C        10.0197512718        6.7270103265        3.5433528893
  C        11.4540492407        3.9965136362        2.1639793781
  C        11.3697034260        2.6775764974        2.0628494344
  H        14.1113656818        2.5726264142       13.5608472217
  H        13.1259079803        1.1132091994       13.6095362330
  C        12.7247743970        2.7199323698       15.1725777680
  S         8.1156442804       10.2118024318       12.7739489089
  N         7.5524932200        9.5790577076       14.1687611905
  C         6.8906889749        7.4388831763       15.1238541721
  H         6.4183253236        5.3450289627       15.4908540568
  H        12.2061929617        7.3207222460        5.0784281760
  H        12.6183695311        6.8240255038        3.4452733509
  C        13.4842589936        5.6106622174        4.9980770732
  H        10.0366638561        7.6819879973        4.2166156081
  H        10.4524110874        6.9568628010        2.6722148238
  C         8.6514573025        6.1019532640        3.2211790694
  H        11.7430166550        4.7001976209        1.4085077494
  C        11.5594388868        1.8691760540        0.7923806959
  H        12.5348793383        3.8180332039       15.1005424621
  H        11.8332233980        2.2249745910       15.4970616130
  C        13.7204533224        2.5898223689       16.2700644695
  C         6.5882734762        8.0872838441       16.3146910348
  H        13.3890761285        5.2085017558        5.9845011469
  H        13.6871789621        4.7696773851        4.3576869908
  C        14.7658672276        6.3813438767        4.9653941085
  H         8.0031111981        5.8913087757        4.1168975932
  H         8.7248305715        5.2656913108        2.5698622169
  C         7.7027125930        6.9804118047        2.4301863005
  C        11.6440133927        0.4501393194        0.6510760853
  C        11.8429571192        2.6303267164       -0.4279013611
  H        14.6190445153        3.1747911862       16.1399319762
  H        14.0409244064        1.5474648886       16.2336932055
  C        13.0280471490        2.9534461674       17.6156289184
  H         6.2512416288        9.1458494612       16.1835530495
  C         6.2549840311        7.6169107323       17.5448398988
  H        14.6615737038        7.2999268016        5.4736266909
  H        14.9051855309        6.6045244863        3.9743539785
  C        16.0089792200        5.6036002221        5.4415718718
  H         7.4590799667        7.6991763446        3.1215225074
  H         8.1515745229        7.4134028433        1.5094548038
  C         6.5056751236        6.2597573701        1.8200733415
  N        11.3083177014       -0.4447060337        1.6159164577
  C        11.9632716275       -0.0294935416       -0.5431523173
  C        12.0591321180        2.1076798220       -1.7116766673
  H        11.8447233254        3.6972228218       -0.3301757924
  H        12.4656679965        2.1238830686       17.9103776884
  H        12.3244635337        3.8156121333       17.6676433934
  H        13.7675172076        3.1034500551       18.5392528585
  S         6.0417443978        6.0033901474       18.0848966938
  C         6.0032543112        8.6272537094       18.5507298126
  H        15.9993523920        4.5085362244        5.2950267125
  H        16.8674385618        6.0218542268        4.9489335501
  C        16.2332868686        5.7997631040        6.9910305380
  H         5.9533716105        5.6934119895        2.5906049933
  H         6.9955351010        5.5161504789        1.2752668605
  C         5.6521170301        7.1836708885        0.9932619147
  S        11.4963484287       -1.9560663255        0.9420383841
  N        12.0266315145       -1.4243299601       -0.5296076378
  C        12.2574004655        0.6610834817       -1.7498089224
  H        12.3257615099        2.7403462350       -2.5626015422
  C         5.8285604517        6.7171003424       19.7194691812
  N         5.7215538652        7.9880631015       19.7327416301
  O         6.2398472449        9.7972168214       18.3083295412
  H        15.9679585425        6.8510792607        7.0799562691
  H        15.4762112627        5.2910180399        7.4653602252
  C        17.6799802406        5.3132482676        7.4122601452
  H         6.2734794073        7.7839737514        0.3718701398
  H         4.9945747921        6.7241076792        0.2563513526
  C         4.8021859710        8.1002882330        1.8289500676
  C        12.5400716326       -0.1209245975       -2.8814525728
  S         5.1765059299        5.7850227862       21.1104011295
  C         5.7314562443        8.7210727164       20.9896379038
  H        17.7553052822        5.1211005066        8.5337559100
  H        17.8446964624        4.3818527807        6.8086903253
  C        18.7448413769        6.2926363200        6.9532251095
  H         5.4938306440        8.6189232046        2.4975266282
  H         3.9987814366        7.6219176042        2.4310448929
  C         4.0319531070        9.0447585947        0.9942127912
  H        11.9757849960       -1.0970038176       -2.9588992648
  C        13.1370349704        0.1712638509       -4.1006203698
  H         4.9801772511        8.2882021711       21.6519312415
  H         5.2923518046        9.7025962967       20.7281600088
  C         7.1773250038        8.9888870398       21.5047944761
  H        19.2553121179        6.8415253099        7.7107422312
  H        18.1733093970        6.9703655867        6.2891161625
  C        19.8587659859        5.7089275109        6.0162584576
  H         3.9231472378        8.3554102501        0.1478844623
  H         3.0584740135        9.2578877656        1.5150979179
  C         4.7634470665       10.2694081464        0.6439192514
  S        13.7780969547        1.7351821833       -4.5303403065
  C        13.3558832653       -0.8996680668       -5.0700341442
  H         7.1361680362        9.9042951236       22.0043054580
  H         7.9121460856        8.8419098931       20.6802664047
  H         7.3236670446        8.1361388436       22.1732269295
  H        20.5423569927        6.4815900689        5.6278421745
  H        20.5018947777        5.0579562598        6.5615906173
  H        19.3709930704        5.1423360757        5.1999598409
  H         4.6761359045       11.0936745798        1.3571779183
  H         5.8005391299       10.0536146681        0.5893516752
  H         4.4485955067       10.6607111231       -0.3592490795
  C        13.9720008063        0.9364115442       -6.0710701240
  N        13.6906354981       -0.3233202369       -6.2069737806
  O        13.0112734076       -2.0883512514       -4.9527796883
  S        14.7253251625        1.8100695070       -7.4066028987
  C        13.8404189330       -1.0883607257       -7.4036696775
  H        13.8554428550       -2.2368243772       -7.2995885060
  H        14.8798220420       -0.9503576600       -7.7938489833
  C        12.8643154613       -0.7490101643       -8.4657252475
  H        11.8363761839       -0.7456316015       -8.3726446991
  H        12.9694547172       -1.5344764640       -9.1936108547
  H        13.0988567392        0.1765297396       -9.0029630804
