352
 i =     3400, time =     1700.000, E =       199.4628289973
  H        12.1063229142        7.1381631297       31.4351876330
  C        11.5506034177        6.3155300395       31.8082187304
  H        12.1462110142        5.3915758601       31.4909298259
  C        10.2763407786        6.1277130361       30.8969554373
  C        11.2753327604        6.2553924765       33.2989544847
  C        10.4321448865        5.1808830765       29.8455543660
  H         9.4459336149        5.9179471203       31.4282524604
  H        10.0451653998        7.0172455889       30.5325324557
  H        11.4723295384        7.1962587452       33.7482197257
  H        10.3234303664        5.9871365557       33.3465380165
  H        11.9101760541        5.5663483768       33.8351094800
  C         9.4612635190        5.4512180258       28.5763048511
  H        10.5070325935        4.1814714361       30.1645446919
  H        11.4722917275        5.4286401116       29.3318167254
  C        10.2271703110        5.3567271579       27.2421256671
  H         8.6793681600        4.7162422535       28.7636145885
  H         8.9867079863        6.3345589052       28.5968093242
  C         9.3478030012        4.7490681143       26.1844851399
  H        11.0126370878        4.6642270881       27.2332257761
  H        10.6071821734        6.2070664711       26.7478725046
  C         8.0280517473        5.3836405674       26.0238099863
  H         9.8204940845        4.8371959024       25.1875649210
  H         9.3400580630        3.7537257076       26.4002076830
  C         6.9793288728        4.7170232301       25.2088672692
  H         7.4780111185        5.6947099466       26.9716214443
  H         8.2078423484        6.2790793830       25.3605793612
  C         6.7271503393        3.4381477062       25.9129565122
  C         7.5322562617        3.9970509279       23.9886930838
  C         5.6872082142        5.6113142476       24.9153863893
  C         7.0282935501        2.2977506541       25.2032508642
  C         6.1465929055        3.0554210331       27.2083748188
  C         7.5127725935        2.6509574319       23.9149092916
  C         8.0109912997        4.6035549048       22.7894890708
  H         5.8097850381        6.2330271812       24.1143531042
  H         5.5708941417        6.2369455499       25.7720408706
  C         4.4726970575        4.8772480630       24.7310524288
  S         6.5945906377        0.8398952005       25.9776171774
  C         6.2778538976        1.7411231760       27.4106722906
  H         6.0780111292        3.7307252078       28.0583436316
  C         7.7814908279        2.0276829008       22.7216088406
  H         8.0519504091        5.6518664814       22.9675803882
  C         8.3286364538        3.9531943864       21.6539420765
  H         4.6659755956        4.1857232849       23.8181922738
  H         4.3920614519        4.2731541245       25.6217892396
  C         3.2436824349        5.7829337952       24.6509841725
  C         5.8986420074        1.1542664412       28.7126578721
  C         8.2455155672        2.6325422007       21.5296052818
  H         7.3461887710        1.0392139050       22.8701528238
  C         8.8095604989        4.3727061794       20.4155128635
  H         2.5085067206        5.4816688113       24.0057530479
  H         3.4333440589        6.7729056777       24.2742363898
  C         2.5369304714        6.0325674273       25.9317976045
  C         5.9329929245       -0.3063464290       29.0739453402
  C         5.4363098023        2.0548366099       29.8233176155
  C         8.7758858417        1.9685486214       20.3575007969
  C         9.0965945101        3.2839332611       19.5951906154
  S         9.0303377624        5.8756453203       19.7254326834
  H         1.5531542684        6.5431715182       25.7955814239
  H         3.1544838585        6.6343683908       26.7247416348
  C         1.7962818324        4.7257445948       26.4091921826
  N         6.3654797829       -1.2691454563       28.2639000187
  C         5.7415982940       -0.7685691128       30.3504254641
  C         5.2289786305        1.5259193633       31.1166733896
  H         5.3706415762        3.2083762451       29.8490669797
  C         7.6582428621        1.2012761104       19.5691989266
  C        10.0875386866        1.1572145156       20.6295719914
  C         9.5562337493        3.6819483600       18.3183860162
  C         9.5281082547        5.0675011489       18.2423820797
  H         0.9386890373        4.5295370138       25.7470928624
  H         2.5432763091        4.0419309945       26.2401025620
  C         1.0198513312        4.9746710857       27.6778948390
  S         6.3501038404       -2.7383068678       28.9657720149
  N         5.7773766372       -2.1976560276       30.4004047773
  C         5.2807047995        0.0888040434       31.4708170578
  H         5.1146564484        2.2313673719       31.9531051946
  H         7.3860870810        0.3626929430       20.1545498629
  H         8.1500232667        0.8394199496       18.6717827918
  C         6.4799094486        2.0703407947       19.1178482347
  H        10.3342648684        1.0567673384       19.5707076041
  H        10.0346161920        0.2502809016       21.2579134321
  C        11.3029944473        1.9968554855       21.0745323136
  H         9.8887298326        3.0139142722       17.5885723017
  C         9.9127732934        5.8513292462       17.0135415051
  H         0.3904963543        4.0467724780       27.8127676829
  H         0.1203498343        5.6875610854       27.5729288171
  C         1.9857447093        5.2365496773       28.7915050105
  C         5.0499625985       -0.5179462675       32.7557899206
  H         6.7397539574        2.7167859594       18.2263628538
  H         6.0523282793        2.6964375137       19.9580179495
  C         5.4525317075        1.1505419323       18.5162886015
  H        10.9737697056        2.6326050532       21.8859087241
  H        11.6783030146        2.5755233181       20.2125684084
  C        12.5005636989        1.1508364938       21.3779567045
  C         9.9754356865        7.3192255458       16.9280755228
  C        10.2607805330        5.1775284589       15.6984058738
  H         2.6468506831        4.3682991076       28.8410595808
  H         2.6522317864        6.0616782840       28.6412715958
  C         1.3826856105        5.4178195431       30.2200782334
  H         4.9032937581       -1.6190385674       32.6301838500
  C         4.7459473547       -0.0065714595       34.0179824931
  H         5.2960115852        0.1478640069       18.9914071296
  H         5.7888025976        0.8048331751       17.6434500517
  C         4.1012108935        1.8773847799       18.3720753842
  H        12.2261680175        0.4844512525       22.1562183718
  H        12.7629484673        0.6877316079       20.4442874023
  C        13.7071345672        2.0075743357       21.8804518003
  N         9.5851708156        8.2054623110       17.9577022482
  C        10.2971944662        7.9760151087       15.7346824571
  C        10.6506140123        5.8235811670       14.4723363598
  H         9.9972372457        4.1420470589       15.5587627156
  H         0.7852399735        4.4936798058       30.3947443305
  H         2.1821965748        5.5431234955       30.9580711191
  H         0.7124275362        6.2375762421       30.1720734757
  S         4.4126521120        1.6148017409       34.3730328782
  C         4.6902970864       -0.9356575039       35.1351963228
  H         3.9898397241        2.6944524253       19.0171954937
  H         3.8849072885        2.0812768378       17.3450454412
  C         2.9500092085        0.9480591164       18.7042619251
  H        13.3996408524        2.7167687202       22.6550831894
  H        14.0778949477        2.5749972947       21.0234756177
  C        14.8351752720        1.3006666638       22.6256994401
  S         9.6168072632        9.7054505598       17.3065529283
  N        10.2931101361        9.3283428406       15.8721537038
  C        10.7524461252        7.2766598150       14.4838727005
  H        10.7166443467        5.2489880181       13.5979671300
  C         4.0579626367        1.0022528331       36.0497032923
  N         4.1216131638       -0.3355789517       36.2046120156
  O         4.9107327069       -2.1475558047       34.9742705506
  H         2.1284467644        1.6090217331       18.9666910552
  H         3.2776316659        0.4794952409       19.5415922389
  C         2.6675014220       -0.0503422649       17.6625391543
  H        14.3754885776        0.5756177887       23.2863793353
  H        15.4633052504        0.6705229757       21.9604167312
  C        15.6221499134        2.4038985367       23.3654206185
  C        11.0957155739        8.1954312837       13.4346401120
  S         3.5353418156        2.0466456278       37.2570656518
  C         3.9931883399       -1.1447407959       37.4602665636
  H         2.2214529829        0.3968537282       16.7490685589
  H         3.6266692526       -0.4702582194       17.2974707210
  C         1.9049391795       -1.1662989430       18.2685793958
  H        15.0988254332        2.6296347429       24.3048588857
  H        15.6330367433        3.2007219134       22.6086999608
  C        17.0272962633        1.8613600428       23.6822055352
  H        10.7408643516        9.2160045133       13.4426747514
  C        11.6287432244        7.8806175173       12.1871670209
  H         3.2300482549       -0.8528738949       38.1024452584
  H         3.6560992914       -2.1131950303       37.2178511420
  C         5.3449094346       -1.3466566179       38.1296708690
  H         0.8605863049       -0.9290304232       18.6398230818
  H         2.3802416681       -1.5721994164       19.1527269964
  C         1.6809931877       -2.4077055027       17.2914271347
  H        17.5356560557        2.3991041557       24.5068978522
  H        16.9608188590        0.9214481902       24.1448674707
  C        18.0473243474        1.7174793978       22.5844376539
  S        12.2085062907        6.4003948172       11.6399236683
  C        11.6775052092        8.9131269841       11.1267747506
  H         6.1370459663       -0.6211845244       37.7087372242
  H         5.1992099363       -0.9329938834       39.1755344294
  H         5.7562164580       -2.2972451597       38.1958415835
  H         0.7997361345       -3.0402015817       17.4845904788
  H         2.5621842330       -2.9748245962       17.5047435630
  H         1.6501005235       -1.8646030708       16.3544502612
  H        17.8905317455        2.4388383062       21.7126312170
  H        17.8946833335        0.6666036678       22.1927576056
  H        18.9416221626        1.6256868447       22.9735007932
  C        12.4322761592        7.2327335899       10.0943937945
  N        12.2285410123        8.4917557431       10.0381959375
  O        11.3169759521       10.0843983458       11.3230559642
  S        12.9075718179        6.3958046195        8.5887708597
  C        12.3468683517        9.2580429111        8.8332531680
  H        12.5064663619       10.3740613235        9.0376839170
  H        13.2681404451        9.0217087254        8.3493287934
  C        11.0355659553        9.1639021456        8.0709344011
  H        10.5249046866        8.4570997966        8.6633938810
  H        10.8134339789       10.2450501581        8.0421203606
  H        11.3105044018        8.7747726990        7.1336915996
  H         4.3866001563        1.5181583160       12.3690409200
  C         3.7213076052        2.3223520850       12.2954721667
  H         4.3247170901        3.2225194492       12.3642567867
  C         2.8616316052        2.2563166959       11.0810353999
  C         2.9416766977        2.2993241880       13.6962530107
  C         3.5026467622        2.5439359712        9.7967683009
  H         2.0442380942        2.9027581595       11.1926336710
  H         2.3081754593        1.3807340508       11.1029984487
  H         2.5633360299        1.3664905027       14.0143421619
  H         2.0583103424        2.9576561756       13.5937749466
  H         3.6403284104        2.7052949560       14.3804864523
  C         4.4827294336        1.3922984342        9.3207940995
  H         2.9365773147        2.9008620026        9.0272421594
  H         4.0329635120        3.4892305656        9.8710049857
  C         5.2065516131        1.7245176531        8.0109021152
  H         3.9772302059        0.3748217357        9.1894698355
  H         5.3257284937        1.3014723698       10.1528070952
  C         6.4698673953        2.6403036816        8.2759912555
  H         4.5115967585        2.1861106535        7.2829528852
  H         5.4224555223        0.7547991966        7.5543585845
  C         7.6379197046        1.8369417388        8.8573979225
  H         6.9365167059        2.9373551293        7.2528558301
  H         6.2623519224        3.4690067881        8.8353790025
  C         9.0275502531        2.6514232594        8.9727069315
  H         7.7708221218        1.0148866787        8.1433678562
  H         7.5095778589        1.2681774166        9.7859648958
  C         8.7812937914        3.9817838154        9.6871838360
  C         9.5006378154        3.3541203358        7.7307450282
  C        10.2287282518        1.9236670894        9.7839000110
  C         8.9519411206        5.1108869536        8.8597278156
  C         8.4504974274        4.3612648219       11.0531328680
  C         9.4450211330        4.6841950587        7.6369533754
  C        10.1259937479        2.8485686962        6.6129271336
  H         9.9025994400        1.5729288875       10.6999231520
  H        10.4004838375        1.2093150337        9.0788552759
  C        11.4397488334        2.7824529399       10.0631432466
  S         8.6270048360        6.5891301452        9.6550173295
  C         8.2552990976        5.6984048382       11.0687324226
  H         8.2739853407        3.6787254868       11.7561673810
  C         9.7786012923        5.3952942811        6.4751807144
  H        10.3678613515        1.7919845264        6.5255181760
  C        10.3586469387        3.5068848515        5.4380409968
  H        11.1900328757        3.7058659445       10.4667961562
  H        12.0434606608        3.1732221308        9.1235990872
  C        12.5938218868        2.0256113482       10.8445793982
  C         7.7507661691        6.3908937354       12.3306040000
  C        10.2416766342        4.8363605528        5.3066540911
  H         9.6640782414        6.4914668655        6.5289600875
  C        10.7868601071        3.0999797759        4.1748505548
  H        13.4421916296        2.7037169808       10.7753609859
  H        12.9329883288        1.1193596572       10.3166913237
  C        12.1147757094        1.7138388255       12.2670132868
  C         7.6597192591        7.7975568155       12.6297256381
  C         7.3267079616        5.5662587062       13.5120863297
  C        10.7312282058        5.5991920758        4.0622353196
  C        10.9424814116        4.2576362150        3.3890827317
  S        11.0886298977        1.6394337135        3.3875119194
  H        11.4126846206        2.4540524803       12.4460047246
  H        11.7009465662        0.6905667711       12.5169232853
  C        13.1410475267        2.0214644314       13.3366856615
  N         7.9386596641        8.7954936800       11.7566482902
  C         7.3811718516        8.3720243333       13.8795204813
  C         6.8735949005        6.0926181728       14.7096922912
  H         7.4443923459        4.4878523416       13.5052341438
  C        11.9999563919        6.4641949149        4.2794647716
  C         9.6039172662        6.4410665475        3.3846399091
  C        11.3699411691        3.7849822617        2.1581336917
  C        11.4547656075        2.4843251343        1.9817870601
  H        13.2359549358        3.1967272548       13.3477432154
  H        14.1237995425        1.3984862819       13.2651600348
  C        12.6196553317        1.6571004791       14.7037529911
  S         7.8571836449       10.2542402312       12.4722834468
  N         7.5227287835        9.7280673834       13.9239803281
  C         6.9100014721        7.4905481150       14.9449285092
  H         6.5974813586        5.4536024530       15.4983159829
  H        11.8431449378        7.3348163775        4.8809120847
  H        12.3917619789        6.7793116742        3.4123272154
  C        13.2148280904        5.6944489964        4.8344369567
  H         9.5648562370        7.3677322202        3.8621208633
  H        10.0457549083        6.7188423088        2.4043469342
  C         8.2862570310        5.7346702202        3.2516884481
  H        11.6538295612        4.5670163392        1.4672831994
  C        11.9092541953        1.8347683655        0.7125676051
  H        11.7279547875        2.1448974805       15.0618552283
  H        12.5320870338        0.5861653158       14.5601595922
  C        13.7917091845        1.6690227418       15.7161541677
  C         6.6991825968        8.1560028782       16.2826158030
  H        13.1079887706        5.1446441069        5.6905497906
  H        13.3357586610        5.1102561645        3.9030977565
  C        14.3912677800        6.6795612176        4.8809560799
  H         7.7352851162        5.9252093010        4.1403145813
  H         8.3188974740        4.7525519787        2.9899851874
  C         7.2958525896        6.4426020709        2.3012776813
  C        11.9070378191        0.3742001386        0.5719208478
  C        12.2888716207        2.6364477379       -0.5179188454
  H        14.4678916043        2.4468261749       15.2778947125
  H        14.2616914812        0.6986757806       15.6893509331
  C        13.2939361265        2.1804959631       17.0205195572
  H         6.3956309445        9.1378226793       16.1009443381
  C         6.3516647451        7.5703251949       17.5221580867
  H        14.2990085321        7.3288499545        5.7469093062
  H        14.4438712269        7.3116943096        4.0766366838
  C        15.8541207528        6.0829867683        5.0759685855
  H         7.3422886479        7.4752762056        2.7779482024
  H         7.8220048352        6.3895370804        1.2442255577
  C         5.9223131614        5.8429824393        2.2051157860
  N        11.6869096215       -0.4806525819        1.5848197202
  C        12.1754212983       -0.2752965046       -0.6121601760
  C        12.4346149756        1.9339707864       -1.7310867770
  H        12.4514232935        3.6386951498       -0.4546402473
  H        12.3245593998        1.8475394820       17.1975775166
  H        13.1208481014        3.2548484976       17.0003817397
  H        13.9318540594        2.0048007199       17.7878734985
  S         6.0200188650        5.9026640157       17.8619452353
  C         6.2048689430        8.4983739995       18.6711647217
  H        16.0001431527        5.4238434161        4.2469732722
  H        16.5201873562        6.9631276360        4.7982913517
  C        16.0207847797        5.5403443592        6.4994734765
  H         5.7431328049        5.0047490690        2.8135599305
  H         6.0501821997        5.2612220915        1.3182368196
  C         4.7646048548        6.8046991750        1.9293180030
  S        11.7852106903       -2.0734315772        1.0474033287
  N        12.2621420512       -1.6891599395       -0.4435748396
  C        12.4723360854        0.3946428396       -1.8757794526
  H        12.6843098033        2.4227327075       -2.6542656015
  C         5.6023230739        6.4442218722       19.5448229665
  N         5.7244559520        7.7894129951       19.7224987941
  O         6.3456857382        9.7537059994       18.6619951301
  H        15.8010511500        6.1441114688        7.3934802575
  H        15.1502791652        4.7879062554        6.5560009707
  C        17.4508078553        4.8276485339        6.5852632005
  H         4.0731882330        6.2588906263        1.3142064605
  H         4.3081372799        7.0890769478        2.8389991296
  C         5.1544909506        8.2101230730        1.2822656472
  C        12.5829401499       -0.3097794489       -3.1168223415
  S         5.0424428560        5.3072932543       20.8097859155
  C         5.5721662574        8.4083372263       21.0556003439
  H        17.5888779263        4.2730612418        7.4242882490
  H        17.4589918472        4.2767731523        5.6703808464
  C        18.5821754507        6.0074165345        6.6785796047
  H         5.8413747031        8.0617060373        0.5696238355
  H         5.5730845811        8.7754794623        2.0773687080
  C         3.9075224296        8.9572686000        0.8506515385
  H        12.1369496161       -1.2156826195       -2.9909724896
  C        13.1842409272       -0.0574188405       -4.2737079372
  H         4.9990258510        7.7434456869       21.6079376701
  H         4.8512104409        9.2209041767       20.9445878742
  C         6.8755813191        8.4322452424       21.8018780422
  H        19.3316646638        5.7987916190        7.5491030989
  H        18.0680196549        6.8452286805        6.9671036313
  C        19.4417747160        6.1616290633        5.3792003382
  H         3.5835755580        8.4126494280       -0.0163771446
  H         3.2361351295        8.9608463545        1.6567834671
  C         4.2324157260       10.4524900146        0.3841222105
  S        13.9729033289        1.4295605313       -4.7405123649
  C        13.0295669864       -1.1152796671       -5.3592177160
  H         6.9764535722        7.6031071431       22.5000798084
  H         7.1297423775        9.4400982999       22.3511741719
  H         7.7264744108        8.2510981858       21.2206510174
  H        19.2801095155        7.0456962104        4.8566606132
  H        20.5288172163        6.2632975632        5.7003678023
  H        19.4694905736        5.3845058395        4.6595592426
  H         3.9702519085       11.0786870660        1.2337667553
  H         5.2944932616       10.6439808693        0.2521992317
  H         3.7576931528       10.8067370847       -0.5351621615
  C        14.1816012332        0.6204151099       -6.2801446258
  N        13.7903545391       -0.7263080765       -6.3503102248
  O        12.5559699112       -2.1956138981       -5.2483147594
  S        15.2726756452        1.4395797363       -7.4851455448
  C        13.9979255121       -1.4681366938       -7.5236065399
  H        13.7191648227       -2.4866764046       -7.4148254704
  H        15.0551110780       -1.5449683023       -7.9544169611
  C        13.1213385200       -0.8746067642       -8.6287765687
  H        12.2350794363       -0.2374395633       -8.2753790752
  H        12.4117992199       -1.7344762919       -9.0669772791
  H        13.5606038692       -0.5865975877       -9.6674982838
