352
 i =    34700, time =    17350.000, E =        97.4963135586
  H        10.0898639480        4.8662102181       31.7542974047
  C        10.5754039198        5.6101305908       32.3397931187
  H         9.6791836462        6.0795519863       32.7149864843
  C        11.5229223747        6.5161878856       31.4548690376
  C        11.3423098938        5.0874214429       33.5762843356
  C        11.7722032924        5.8797371082       30.0615680392
  H        11.1269988865        7.5033283390       31.3836161703
  H        12.3289342617        6.5239555243       32.1572267107
  H        11.0152021543        4.1009872237       33.6823060943
  H        12.4818348168        5.0652112059       33.4862920013
  H        11.1359948991        5.6710718042       34.4514525509
  C        10.5563548768        5.9130692965       29.0481160726
  H        12.2154874855        4.8795325490       30.0305994630
  H        12.4832662699        6.5066117780       29.6900302441
  C        10.8702359855        5.5807501882       27.6293214392
  H         9.6877912807        5.2745474703       29.3455670276
  H        10.2003569651        6.9580872845       29.0115578189
  C         9.7343286091        4.7644523873       26.8607270538
  H        11.7857828093        4.9443214159       27.6982755733
  H        11.2498965810        6.4966959708       27.1171035195
  C         8.4529645411        5.6235307741       26.5961844079
  H        10.1685929495        4.3161271648       25.9701118057
  H         9.3665265182        4.0179032819       27.5324981277
  C         7.3042659688        4.9321958184       25.7066454352
  H         7.9307226774        5.8349636729       27.5770191214
  H         8.6741568989        6.5509080592       26.1234554599
  C         6.8661286051        3.6055294983       26.3542744022
  C         7.8407304527        4.0808697117       24.4703329096
  C         6.0735556030        5.8563254848       25.2787054563
  C         7.1179920222        2.4512470563       25.5863583386
  C         6.3050961653        3.2013129580       27.5636260496
  C         7.7156045520        2.7084478937       24.3538716162
  C         8.3641587612        4.6715526874       23.3322758926
  H         6.2933269719        6.5361019073       24.4113998053
  H         5.9497662159        6.5470762890       26.0916640246
  C         4.7809979983        5.0078054883       25.0300212901
  S         6.6792127253        0.9350539204       26.2967007888
  C         6.2636195484        1.8047245856       27.7166228814
  H         5.9473425958        4.0221029513       28.1781621619
  C         8.0822922069        2.0741891882       23.2290277188
  H         8.3452381625        5.7370548402       23.2548759772
  C         8.7062541503        4.0021411846       22.2220869433
  H         4.9034086084        4.6477289725       24.0426255107
  H         4.6511712496        4.1157212952       25.5668383580
  C         3.4631097236        5.7884212537       25.1154239843
  C         5.7047520804        1.1326758177       28.9577266380
  C         8.5498259743        2.6981281833       22.0747202003
  H         7.9775465658        0.9830862492       23.3215805547
  C         9.0236468209        4.3366454482       20.9073669871
  H         2.7091967345        5.2525446975       24.4777351899
  H         3.5282241962        6.7526304110       24.6596895692
  C         2.9106797029        5.8959719403       26.5557447403
  C         5.8080384563       -0.2903459979       29.2137529623
  C         5.2385838543        2.0268388631       30.0659218114
  C         8.9781507406        1.9394916670       20.7909712396
  C         9.2017270651        3.2911933711       20.0904081463
  S         9.2715604288        5.8492201880       20.1328482181
  H         2.4989615549        6.8894520990       26.7701191511
  H         3.7564851906        5.8442620122       27.3210521294
  C         1.7973021322        4.8369224015       26.9282371992
  N         6.1482924930       -1.3016544897       28.3086673250
  C         5.5813535393       -0.8255064796       30.4760111901
  C         5.1689836097        1.4514635524       31.3354050817
  H         4.9800837946        3.0194507667       29.7415617694
  C         7.8446575727        1.0737279533       20.1421108714
  C        10.2192618091        1.0719433525       21.0071243461
  C         9.6054900845        3.6171517340       18.7588127496
  C         9.5890577087        4.9575558305       18.6438551701
  H         1.0695312979        4.6954460941       26.1055950479
  H         2.3478655772        3.8556156799       27.1573447727
  C         1.0834202270        5.0979478869       28.2358886134
  S         6.2371166558       -2.7285957138       29.1027723073
  N         6.0095173053       -2.1815261821       30.5984822339
  C         5.2187046955       -0.0115979030       31.5822748269
  H         4.8600388155        2.1492167101       32.0596616926
  H         7.5876272841        0.2263580087       20.7904642005
  H         8.2010857234        0.4498265235       19.2836741325
  C         6.6074306385        1.9125957667       19.6875658218
  H        10.6282605531        0.8478528702       20.0757897200
  H        10.0302141755        0.2077751648       21.6125522139
  C        11.3458878440        1.8393149975       21.7055653687
  H         9.6615549581        2.8232834258       18.0327728394
  C         9.7705017929        5.7693737822       17.3749498832
  H         0.4604235809        4.2213210148       28.4311804972
  H         0.2522654834        5.7875854934       28.1375712328
  C         1.9393315720        5.4255711834       29.3868967406
  C         4.9942191360       -0.7440987795       32.7891181870
  H         6.8096870198        2.8482279707       19.0973450724
  H         5.9963323105        2.1566337220       20.5777418490
  C         5.7018362002        1.2356562433       18.7374055566
  H        11.0241280102        2.2184259110       22.6770458310
  H        11.4933959066        2.7397543169       21.0819509939
  C        12.7081870197        1.2424697253       21.7727342059
  C         9.8887965541        7.1786246544       17.2572093283
  C        10.0657764446        5.0250638968       16.1413811936
  H         2.8730124482        4.7892594305       29.4643206364
  H         2.2359801597        6.4584998138       29.3826639874
  C         1.2055439108        5.1072927453       30.6950259971
  H         5.0610572974       -1.7990164396       32.7678941303
  C         4.7279980265       -0.3438495320       34.0856081585
  H         5.3901549291        0.3298196466       19.1115534771
  H         6.2045594212        1.0913477832       17.7624317221
  C         4.4032573325        2.0472712897       18.4136757383
  H        12.7483677683        0.3409976034       22.4229661536
  H        13.0559865074        1.0053405691       20.7824958467
  C        13.7803399049        2.1646903730       22.2997547079
  N         9.8488936422        8.0858682333       18.3334636502
  C        10.1631733864        7.8171065695       16.0562637441
  C        10.3755912341        5.5945171632       14.9060510336
  H        10.1860602695        3.9727840598       16.2741486879
  H         1.3654507125        4.1136661959       31.0394670624
  H         1.4662600483        5.8417157015       31.5216667272
  H         0.1566469486        5.1833418896       30.5683987816
  S         4.6436681161        1.2267449150       34.6879604546
  C         4.4652223982       -1.4104708070       35.1359929879
  H         4.4087499590        3.0442900390       18.7796625073
  H         4.2978868968        2.2529562580       17.3623273453
  C         3.2864212324        1.2281660098       18.9321978602
  H        13.4155926774        2.9623716342       22.9675697815
  H        14.2487411958        2.4813704880       21.4418883951
  C        14.9079239109        1.4687180720       23.0567577418
  S         9.9871680028        9.6059387406       17.7614434517
  N        10.2048859684        9.1876431420       16.2118497400
  C        10.4406566193        7.0913263939       14.8746279000
  H        10.4735530736        5.0337085309       14.0180271366
  C         4.3784397392        0.4832433024       36.2883593289
  N         4.3041653651       -0.8488301831       36.3001057213
  O         4.4557480589       -2.5650022624       34.9847834894
  H         2.4869700497        1.9674070554       19.1664981851
  H         3.5779171005        0.8567654333       19.9127082258
  C         2.7900652099        0.0841737904       17.9530726744
  H        14.5227406229        0.8778645058       23.8456488427
  H        15.4065012196        0.7446058838       22.4401399118
  C        15.9049457111        2.4814980455       23.5847763224
  C        10.7561980087        7.8307084930       13.7616228871
  S         4.4168612244        1.3941618512       37.8275549900
  C         4.2289000188       -1.6211676200       37.4805134838
  H         2.7474454398        0.4522529524       16.9642429399
  H         3.5836384468       -0.5247522900       17.8368482489
  C         1.6337751596       -0.6645374442       18.5896806254
  H        15.4357150917        3.1710145251       24.2200478777
  H        16.2634605541        3.0466570938       22.7028521025
  C        17.1064552558        1.8125904938       24.2914122135
  H        10.6328332262        8.8906161188       13.8999047154
  C        11.2517848996        7.6228793718       12.4772003859
  H         3.5385000962       -1.1841628825       38.2037256512
  H         3.7578707761       -2.6268997104       37.3912177323
  C         5.5907745281       -1.6872910246       38.1740105112
  H         0.7242156141       -0.0771637508       18.4630207282
  H         1.6050852803       -0.8594134467       19.6350633656
  C         1.5285936032       -1.9971141380       17.8803097646
  H        17.2837741367        2.5159153449       25.0951380945
  H        16.7271076692        0.8593635967       24.7163753290
  C        18.3721034213        1.6304398894       23.3957780699
  S        11.9237710907        6.1635151247       11.8555262134
  C        11.3669376007        8.7737688274       11.4989947998
  H         6.4765583397       -1.7260339073       37.5806311215
  H         5.6942387260       -0.8829401466       38.8640788764
  H         5.7456578532       -2.5306979329       38.8062881023
  H         1.2289058898       -1.8378863389       16.7881831419
  H         0.7891105880       -2.6112751858       18.2662461087
  H         2.4275671514       -2.5862003906       17.9449118489
  H        19.1445255810        0.9198377562       23.8398688356
  H        18.9132856261        2.5237183002       23.3725144402
  H        17.9922191929        1.3073684678       22.4151373273
  C        12.2782252426        7.0236607098       10.4068746214
  N        11.9767039333        8.3628750541       10.3859024285
  O        10.9981219007        9.9427337421       11.7085241539
  S        12.9442104010        6.2031490314        9.0169385028
  C        12.3066713012        9.2043947745        9.2198362464
  H        12.3841219469       10.2968566156        9.5028700408
  H        13.2460399098        8.9439938354        8.7540027537
  C        11.2252220623        9.0424728870        8.2430234970
  H        10.2543275949        8.8815150098        8.8153860614
  H        10.9990855706        9.9835272169        7.7403660622
  H        11.4461425336        8.2530057240        7.5403420979
  H         2.7405068103        1.1153459586       13.2417359470
  C         3.4898491165        1.5259257761       12.5969239756
  H         3.9603362786        0.6626028510       12.1166546988
  C         2.8404615679        2.3935377397       11.5865405953
  C         4.5514900745        2.1444326978       13.4391739506
  C         3.6664510969        2.6374766478       10.2976910557
  H         2.6933425737        3.4198609176       12.0074774334
  H         1.7429742688        2.1332585306       11.5292470112
  H         4.3059153117        1.9167376624       14.4793158489
  H         4.5656453654        3.2466468334       13.4024037366
  H         5.5371984560        1.6146090905       13.2825269079
  C         4.4579287018        1.4320774832        9.8301191971
  H         3.0344165578        2.9964927283        9.5091722589
  H         4.3573126677        3.5148796611       10.4606135621
  C         5.2033611889        1.7611624244        8.5360217779
  H         3.7811719581        0.5998784280        9.8085935843
  H         5.2400369977        1.2050049772       10.5839211752
  C         6.4913897311        2.5638235373        8.7662769441
  H         4.6319089278        2.3969240377        7.8451378193
  H         5.4544820627        0.8188238409        8.0961615089
  C         7.7462424085        1.8340738698        9.3448240744
  H         6.7851332458        2.9041604670        7.8260894707
  H         6.1818750375        3.4442983666        9.3461098364
  C         8.9559726159        2.7451916397        9.5781252885
  H         7.9999719688        0.9201363125        8.7666341550
  H         7.4296234790        1.3146946620       10.2694970399
  C         8.5513381068        4.0532832300       10.2071512960
  C         9.3637620985        3.4397962959        8.3227039589
  C        10.0983603984        2.0046378749       10.3288432384
  C         8.7836440886        5.1571044650        9.3919476656
  C         8.1305100018        4.4456841462       11.4703556850
  C         9.3469702465        4.7969069145        8.1994981980
  C         9.8375871578        2.8166728491        7.2102235402
  H         9.5973554889        1.4081981322       11.0783529897
  H        10.5029191041        1.3041150108        9.6130883848
  C        11.2435991485        2.9061172089       10.8246335469
  S         8.3314964454        6.6201582848       10.1318072092
  C         7.9629255738        5.8202529731       11.6236180480
  H         7.8751033593        3.7118203018       12.1705446267
  C         9.6844599716        5.4057800175        7.0333824161
  H        10.0372929016        1.7590385834        7.2483852882
  C        10.1517562627        3.3848355364        6.0228968246
  H        10.7749685517        3.6558306887       11.4353833342
  H        11.7728416094        3.5524189020       10.1413982867
  C        12.4736465426        2.1774797862       11.5540240090
  C         7.6037946772        6.4531115344       12.9339375924
  C        10.1040108951        4.7619917888        5.8588241747
  H         9.5597238890        6.4891401265        6.9033396740
  C        10.5552330584        2.9792970038        4.7801103737
  H        13.3738122375        2.8305074112       11.6760867627
  H        12.8503900817        1.3600767834       10.8855909519
  C        12.1045952417        1.7312848401       12.9650237181
  C         7.6491296875        7.8189681105       13.1935457702
  C         7.2318099587        5.5712937369       14.0675217556
  C        10.6296116882        5.4364714518        4.5517308133
  C        10.8228391473        4.0352435660        3.9250152047
  S        10.7041159930        1.4414550511        4.1302133229
  H        11.6412069188        2.6573339823       13.4563810301
  H        11.4204975350        0.8547166114       12.9084158851
  C        13.3911678155        1.4481239690       13.6236780257
  N         7.9404694977        8.7813018112       12.2508609678
  C         7.3644744666        8.3785537947       14.4355572695
  C         6.9702191811        6.1447738088       15.3003944752
  H         7.1844131203        4.4887455730       13.9632927960
  C        11.9769852162        6.1369524157        4.6337963269
  C         9.5867073849        6.3152033424        3.8590775549
  C        11.1681306246        3.5442613087        2.6689383432
  C        11.2122689702        2.1882273231        2.6199460307
  H        14.0893826158        2.2702027019       13.6733256638
  H        13.8919499849        0.7201464504       13.0694789777
  C        13.3075111683        0.9369889477       15.0177285642
  S         7.9424251763       10.2277466174       12.9360757327
  N         7.4462423066        9.7500467726       14.3866774446
  C         7.0840702592        7.6330422408       15.5662258967
  H         6.7961360030        5.4243108402       16.0609047155
  H        11.9161293765        7.0754544958        5.0450063377
  H        12.3353090029        6.3575775654        3.5964871566
  C        12.9878259422        5.2240883523        5.3410219927
  H         9.3403936000        7.1100056531        4.5349672532
  H        10.1755018209        6.8494835993        2.9998314744
  C         8.3404530193        5.5472084522        3.3620680812
  H        11.3291180167        4.3273181950        1.9080554590
  C        11.5266626291        1.4312101138        1.4177559379
  H        12.8830406304       -0.1085906987       15.0590862338
  H        14.3288130089        0.9580184697       15.4237301371
  C        12.5636998407        1.7949420751       15.9531239186
  C         6.8020993843        8.2766189519       16.7847463322
  H        12.5791400084        5.0731535481        6.3147307388
  H        13.0903071865        4.1671611301        4.9804073994
  C        14.3344638573        5.9017067104        5.3919132284
  H         8.1587066860        4.7780046476        4.0641392602
  H         8.5854974710        5.0528468330        2.4670221378
  C         7.0812714324        6.3681315313        3.1885676021
  C        11.5659377340        0.0281528646        1.2735422716
  C        11.5979527791        2.1858374875        0.1708334619
  H        11.5964555124        2.0171154368       15.5862295393
  H        13.0710607457        2.6961192214       15.8407141440
  C        12.5366757456        1.2739086452       17.3388749421
  H         6.9204314194        9.3224456991       16.7211525554
  C         6.4677531961        7.7421487052       18.0198324365
  H        14.2470532648        6.9289271238        5.7352048245
  H        14.8684486993        5.9078067226        4.4426596755
  C        15.2652540264        5.1809010405        6.3525567867
  H         6.9861275308        7.0472754396        4.0568825501
  H         7.0959763133        6.9433909852        2.2217029870
  C         5.9138599698        5.4251012620        3.1279591836
  N        11.3545945734       -0.9441635336        2.2837425962
  C        11.9422430029       -0.6058952023        0.0950021491
  C        12.0079482018        1.6122526466       -1.0138373171
  H        11.4051485990        3.2978980402        0.1865973832
  H        11.4382915110        1.0229866819       17.5988657710
  H        12.9734829082        1.9191357950       18.1208201234
  H        13.0171517048        0.3340408923       17.4499221122
  S         6.1305625718        6.0989848436       18.4303411077
  C         6.4602269482        8.6722366954       19.1592092496
  H        15.1918019171        5.5576287426        7.4152405643
  H        14.9842547732        4.1718690157        6.4969804667
  C        16.7128455263        5.1875805522        5.8630934244
  H         5.7525487915        5.0947340831        4.1816880664
  H         6.2204700945        4.6082677827        2.4882738698
  C         4.5411338704        5.9748507023        2.6077846547
  S        11.5527107374       -2.4478032052        1.7948093897
  N        12.0013232214       -2.0577866738        0.2409604286
  C        12.2362025589        0.1281028846       -1.1071671842
  H        12.1059059370        2.2016674013       -1.9434986677
  C         5.8869085250        6.6804642792       20.1218398976
  N         6.1445049617        7.9875321334       20.3025376053
  O         6.6120112379        9.8667363975       19.0472300440
  H        16.8756805882        4.7681702059        4.8621184842
  H        16.8590319371        6.2606494834        5.9224133174
  C        17.6584816227        4.5283447687        6.9315566535
  H         4.5399537604        6.0981816144        1.5302156702
  H         3.8323596690        5.1333444732        2.6851810946
  C         4.1373165550        7.2565320986        3.4159721250
  C        12.5849776686       -0.5957325780       -2.3143637891
  S         5.6948268996        5.6331029166       21.4636837550
  C         6.1342125995        8.6652921139       21.5777816081
  H        17.0456999551        4.3157601781        7.8468917267
  H        18.0219181633        3.5603053605        6.7252605237
  C        18.7788604115        5.4053273378        7.3673943134
  H         4.6249506322        7.2485963727        4.3844303609
  H         3.0493930251        7.2724114035        3.5301158097
  C         4.6109387576        8.6017755794        2.9244772819
  H        12.3524486348       -1.6831020320       -2.1164061675
  C        13.0055415631       -0.3045261649       -3.5358130070
  H         5.5856306061        8.0471103981       22.3225725427
  H         5.6148781603        9.6123321406       21.3988704875
  C         7.5971416114        8.8770582006       21.9869067294
  H        19.3217182346        5.0518946760        8.2342555762
  H        18.3678045527        6.3557035139        7.7181967955
  C        19.6610824614        5.6536251312        6.1962887586
  H         4.0684368012        9.3049343534        3.5473876966
  H         5.6339398732        8.8024298918        3.1472808867
  C         4.3782013344        8.8969908746        1.3634820123
  S        13.6830558992        1.2435058799       -3.9665269391
  C        13.0863201604       -1.4042614951       -4.6041534897
  H         8.0658436924        7.9082316659       22.1231327471
  H         7.5761289763        9.4766057739       22.9443082364
  H         8.1358977690        9.4632742854       21.2789949766
  H        19.5868250391        4.8515875097        5.4972980652
  H        19.3628189743        6.5424021616        5.6505753566
  H        20.6909937613        5.6731519343        6.6465483135
  H         3.8867703694        9.8361929084        1.1144809202
  H         5.3770329248        8.8860491710        0.8310836204
  H         3.8796799230        8.1276355206        0.8503775528
  C        14.0364473172        0.4270526851       -5.5119390408
  N        13.7272894550       -0.9272047706       -5.6566652842
  O        12.7015376006       -2.5634167449       -4.4215610916
  S        14.8798894351        1.4121217397       -6.7983544445
  C        13.8564045784       -1.6754115868       -6.9183759801
  H        14.1272561119       -2.7570395003       -6.8630060383
  H        14.6486342327       -1.0919253003       -7.4012705645
  C        12.6687173901       -1.5741808818       -7.7658604845
  H        11.7888519284       -1.5516400131       -7.1445834970
  H        12.5372453526       -2.4937616143       -8.3502490477
  H        12.7913860441       -0.7128081904       -8.4401662306
