352
 i =    92700, time =    46350.000, E =       100.7835851528
  H        11.7027518057        6.8756864845       32.7445056354
  C        11.3045369861        5.8033917566       32.7336111973
  H        12.2334467817        5.1296405967       32.6778167325
  C        10.4595740568        5.5606557795       31.4711234801
  C        10.5578798922        5.5982870965       34.0587736911
  C        11.0644215075        5.8915309497       30.1070518586
  H        10.3341155134        4.4647879397       31.5047910697
  H         9.5378754018        6.0344901234       31.7366434914
  H        11.2800776488        5.4271928317       34.8453341103
  H        10.0143743175        6.4617667618       34.2905305094
  H         9.9557100388        4.7202519255       33.9796500853
  C        10.0180041073        5.8029738652       28.9970784918
  H        11.9091085545        5.1547526164       29.8723779286
  H        11.6092827932        6.8191839279       29.9924531269
  C        10.5137474988        5.5933143049       27.5791890659
  H         9.2123493721        5.0276523437       29.2285957027
  H         9.5471750676        6.8025663777       29.0649723874
  C         9.4898270351        4.9377151999       26.6248743458
  H        11.3046199645        4.8257743271       27.5815573992
  H        10.7674685186        6.4798457844       27.0374087463
  C         8.2558218556        5.8645238231       26.4610198315
  H        10.0206903106        4.7518760306       25.7349290903
  H         9.1857716674        3.9495862948       26.9956479112
  C         7.0986991326        5.1999892704       25.7184752572
  H         7.9359415194        6.1391052165       27.4577805439
  H         8.4842457934        6.7010690607       25.8042811260
  C         6.7321976360        3.8852318021       26.3415472845
  C         7.5790666535        4.5181862689       24.5013062195
  C         5.8012095046        6.0358294218       25.5900252287
  C         6.9922933833        2.7562582405       25.5726248364
  C         6.1650666711        3.6267634653       27.5671219724
  C         7.6178316217        3.1356235090       24.4106676819
  C         8.0847149421        5.1596690253       23.3055886209
  H         6.1059769302        6.8677217505       24.9702171297
  H         5.4599375074        6.3162350637       26.6093911547
  C         4.6885508034        5.2561613045       24.8214143907
  S         6.6441117710        1.3333930166       26.3621545096
  C         5.9997023117        2.2585043900       27.7409455545
  H         6.1027379139        4.3580773195       28.4093647725
  C         8.0376706855        2.5696678677       23.2536103653
  H         8.1288762004        6.2568091115       23.3813464960
  C         8.4448718385        4.4997073355       22.1421316785
  H         5.0013502006        4.9429883291       23.8003357504
  H         4.5359078769        4.3392969718       25.4010500693
  C         3.3618986305        6.0175883249       24.6544257842
  C         5.6268233108        1.5229965711       29.0072215187
  C         8.5656337306        3.1667068817       22.1479619727
  H         8.0247387627        1.4937153742       23.2879038242
  C         8.8239132252        4.8974194257       20.8553701750
  H         2.8290220735        5.3725029519       23.9666339068
  H         3.5156528222        6.9570480020       24.1039757622
  C         2.6579116833        6.2810361253       25.9916091031
  C         5.7620283083        0.1002641506       29.2303833786
  C         5.1508376676        2.3191766713       30.1735168791
  C         9.0771994417        2.4730112230       20.8843331380
  C         9.2308097830        3.8161868172       20.1235126917
  S         8.9204503099        6.3855269498       19.9876856134
  H         1.8081681516        6.9317424046       25.9764746638
  H         3.3440272316        6.7840908085       26.6795940771
  C         2.3062750427        4.9469869476       26.6965860081
  N         6.1191669096       -0.9286608260       28.2775038213
  C         5.4726069065       -0.4609213872       30.4881964539
  C         4.8974766350        1.6913709699       31.4082536318
  H         5.2383100906        3.3553167424       30.2442339289
  C         8.0258028064        1.5541710224       20.1839622094
  C        10.3395296338        1.7352965053       21.1798499922
  C         9.7702110404        4.2356006972       18.9206082372
  C         9.6525826187        5.5775018064       18.6542576483
  H         1.8392497516        4.2067628317       25.9918759045
  H         3.2443769636        4.4331520731       27.0293637537
  C         1.4650198576        5.1536741375       27.9744012140
  S         6.0572961317       -2.3760208519       28.9482523250
  N         5.5050277400       -1.8907540279       30.4159353642
  C         5.0861867477        0.2556704834       31.6288640910
  H         4.5727860096        2.3521086819       32.1712277616
  H         7.7400005484        0.6145873041       20.7037742638
  H         8.4228692262        1.2005653719       19.2021142379
  C         6.5685233392        2.0930253321       20.0150598746
  H        10.7700050574        1.3929505038       20.2412689951
  H        10.1208276263        0.8536321376       21.7126711326
  C        11.4638166630        2.5289214284       21.8567882056
  H        10.1207525225        3.5129312690       18.2002155838
  C        10.0347818322        6.3542157034       17.3650520809
  H         0.6857772965        4.4800051472       28.0811270768
  H         1.0733325454        6.1962039060       27.9432063495
  C         2.3959871083        5.1764373822       29.1853422007
  C         4.7859606811       -0.4117616589       32.8213005480
  H         6.3756719622        2.9767186221       20.7045501241
  H         5.8798840563        1.3488346248       20.2109511163
  C         6.3958644084        2.4998690879       18.5204866593
  H        11.2646377487        3.0948556152       22.7838148223
  H        11.8510442437        3.2013904427       21.0731145963
  C        12.6370942931        1.5906934423       22.1059846820
  C         9.9907051614        7.8067136038       17.2323351190
  C        10.3974051604        5.6362905994       16.1105680619
  H         2.8580472300        4.1873736886       29.2491738548
  H         3.1060324429        5.9908111265       28.9243382919
  C         1.5819890112        5.4228685739       30.4503011651
  H         4.7653418927       -1.4788437183       32.7551776571
  C         4.4600876920        0.0646859311       34.1019159478
  H         6.6204046285        1.7496810995       17.8082653814
  H         7.0910402200        3.2697940648       18.2445075538
  C         4.9931275277        3.0447157187       18.1109347372
  H        12.1778821749        0.7668963866       22.6493360493
  H        13.0616559092        1.1495268335       21.2350129494
  C        13.6524547433        2.3864725659       22.9406103858
  N         9.7064689693        8.7106502484       18.2774851400
  C        10.2730028215        8.4518538375       15.9836484021
  C        10.6900786805        6.2422192367       14.9298196113
  H        10.4580437227        4.5454907972       16.1200911950
  H         1.3465512237        6.4359277278       30.4198089587
  H         0.7743395285        4.8398970738       30.6709158531
  H         2.2640747948        5.2019093099       31.2934787948
  S         4.2391718710        1.6768629919       34.6255480463
  C         4.4516839069       -0.9582737377       35.1962226100
  H         4.4583771124        3.5933898533       18.8826810633
  H         5.1044091167        3.6869703385       17.2793266931
  C         4.0349147902        1.9368445654       17.7625143280
  H        13.1447831651        2.9165516163       23.7874158311
  H        14.0765983187        3.1780469906       22.2682809590
  C        14.8152450092        1.4821888189       23.4467303982
  S         9.7681627282       10.2260808523       17.6417487572
  N        10.1387464641        9.8511764929       16.0725567949
  C        10.6871279535        7.7349487157       14.8122170379
  H        11.0600692094        5.7328956793       14.0330305862
  C         4.0276669381        1.0419152376       36.2898526523
  N         4.1410470052       -0.3421745581       36.3881842575
  O         4.5745537418       -2.1722990989       35.0914414673
  H         4.3989361378        1.6266080142       16.8137827187
  H         3.1457227442        2.3938379614       17.3470792543
  C         3.9140704045        0.6184738709       18.6417246046
  H        14.4718050026        0.8704157984       24.3016272107
  H        14.8743420112        0.7634564021       22.6614114190
  C        16.0990149252        2.1539128909       23.9612746738
  C        10.9269324870        8.4852080179       13.6233126625
  S         3.9019905908        1.9580868961       37.8175714976
  C         4.2261805766       -1.0624256665       37.6374484956
  H         4.8462431375        0.1119074605       18.5065810266
  H         3.8404373800        0.8762931221       19.6659742279
  C         2.5985237477       -0.1758803187       18.3071938126
  H        16.6261570798        1.5268133234       24.6129452232
  H        15.8515052024        2.9984392757       24.5990527988
  C        17.0183258169        2.5820507292       22.7370593896
  H        10.7771038317        9.5137567040       13.8395746970
  C        11.3659379052        8.1351029843       12.3991716252
  H         3.6042199769       -0.4712410915       38.3602037891
  H         3.6098550033       -1.9790733826       37.6563602270
  C         5.7630482703       -1.2992699632       37.9697117707
  H         2.4567932851        0.0075160312       17.2446147672
  H         1.7830213395        0.3529871246       18.8369459092
  C         2.7893488132       -1.6059098930       18.6998811749
  H        16.5511627886        2.3371575149       21.7987656795
  H        17.2830419004        3.6194374554       22.7088509676
  C        18.4259497652        1.8272371767       22.8499459227
  S        12.0734680323        6.6439146684       11.8885480250
  C        11.3810216500        9.2307017231       11.3732673855
  H         5.8582667316       -2.3870259025       38.2410979181
  H         6.3409415166       -1.0166375377       37.0930631982
  H         6.0285001268       -0.7377677094       38.8137998486
  H         3.6107470341       -2.0022877469       18.1396120673
  H         1.8706400625       -2.2007425157       18.6546566548
  H         2.9850466692       -1.6949852022       19.7732876553
  H        18.9534699283        1.9340255827       23.8667499929
  H        19.0926846689        2.2574011686       22.0979799761
  H        18.3368904250        0.7875292726       22.6292664556
  C        12.3542427926        7.4133306950       10.3391592605
  N        12.0776602164        8.7295061887       10.3033779181
  O        10.7796072304       10.3060719015       11.3912462999
  S        12.9445115275        6.6124695687        8.8573136570
  C        12.2190205888        9.5614349995        9.1032704542
  H        12.4601450514       10.5536675899        9.4010523124
  H        13.1078296415        9.1950471237        8.5466025492
  C        10.9118998500        9.5570203984        8.2821438942
  H        11.0056638503        8.8191331586        7.4886853168
  H         9.9681432622        9.3857505040        8.7807092551
  H        10.8077382831       10.5447141300        7.8166922973
  H         4.4111899270        0.9808171015       12.9399252302
  C         3.9794674223        1.9586620417       12.9951948817
  H         4.8236134149        2.6115038662       12.8607091994
  C         3.2342845222        2.2342269867       11.7098590610
  C         3.1125701560        2.0100281218       14.2443073290
  C         4.1410010420        2.5846767608       10.4600479573
  H         2.5860662483        3.0671318682       11.8413695987
  H         2.5363719812        1.3960241360       11.3755466285
  H         2.1254922986        2.4294220989       13.9122311117
  H         3.4962963338        2.7174836525       14.9954215003
  H         3.0231054751        0.9428887453       14.5831917596
  C         4.7180129431        1.3231741740        9.7586697508
  H         3.5064637373        3.1632734435        9.7530923238
  H         4.8590699512        3.2705628498       10.8054752143
  C         5.4177431604        1.6324962893        8.4770241755
  H         3.9328136607        0.5510692970        9.5943723528
  H         5.3719349844        0.8546440624       10.4544004589
  C         6.5931633596        2.5655812711        8.7451713834
  H         4.6703368860        2.0512741542        7.8164650886
  H         5.6031757606        0.6961996062        7.8797495770
  C         7.8683769954        1.8649917658        9.2849008017
  H         6.7331722467        3.1452061483        7.8850195433
  H         6.2947638504        3.2910528750        9.4871913474
  C         9.0876686395        2.8647148269        9.5181191185
  H         8.2027139742        1.2711562573        8.4357932831
  H         7.7519831643        1.1982241141       10.1133502185
  C         8.6793294072        4.2017583439       10.1916181974
  C         9.5401102482        3.5444850046        8.2254668737
  C        10.3100868385        2.1456311879       10.2630638007
  C         8.9801725275        5.2909549358        9.4311816323
  C         8.1340904994        4.6240933362       11.4381828393
  C         9.5030721683        4.9146410683        8.2016210211
  C        10.0398412973        2.9217605048        7.0604776212
  H        10.0184731129        1.5029089324       11.1360430617
  H        10.7126599675        1.4211209712        9.4767627015
  C        11.4001287154        3.2147488338       10.5404355370
  S         8.6385511208        6.8062239579       10.1271469574
  C         8.1176508660        5.9618639219       11.5717489790
  H         7.9100892662        3.8922021029       12.2256698626
  C         9.8233160732        5.5282025622        7.0520401795
  H        10.0971383120        1.8182016888        6.9556963545
  C        10.3886128357        3.5595415464        5.9392048580
  H        10.9594280815        4.1484613175       10.9006579726
  H        11.9581147019        3.5862033471        9.6627891486
  C        12.5796636061        2.9087723516       11.5834369784
  C         7.6912804406        6.7398519374       12.8266653514
  C        10.3327065096        4.9348821593        5.8867581516
  H         9.8548412078        6.5972023866        7.0415608987
  C        10.9197591682        3.1743739096        4.7275415611
  H        13.3125042667        3.6887319733       11.5387536808
  H        13.1780444304        2.0573960157       11.4122060451
  C        12.0913152900        2.9832227992       13.0206505088
  C         7.6550815478        8.0990741644       12.9695332816
  C         7.4346816667        5.9226417131       14.0859194833
  C        10.7457065474        5.6161286778        4.5633271801
  C        11.1082908725        4.2677121984        3.9395600307
  S        11.1557131819        1.7060863862        3.9134303329
  H        11.8376962066        4.0022740019       13.2530737018
  H        11.1019745656        2.4959219973       13.1279356126
  C        13.0791469788        2.3817007733       14.0206408687
  N         7.8015174503        9.0522868433       11.9438658798
  C         7.3863503405        8.7022611249       14.1680153800
  C         7.0585493934        6.5151394258       15.2508768544
  H         7.3752108048        4.8269596419       14.0202464730
  C        12.0094608573        6.4937969476        4.7514197814
  C         9.6237417715        6.4210933242        3.7518389447
  C        11.4870948128        3.9188201157        2.6187816741
  C        11.5462026987        2.5316706371        2.4792374626
  H        14.0617698584        2.8919939573       13.9496030717
  H        13.3855414448        1.3345278423       13.7595860615
  C        12.4809235626        2.4401280168       15.3928723755
  S         7.8046325494       10.5644141963       12.5476281746
  N         7.4403165498       10.0843228310       14.0539740536
  C         7.0748915830        8.0183189527       15.3719989079
  H         6.8383392290        5.8501853083       16.0868940470
  H        11.7522294685        7.1890423947        5.5040982876
  H        12.2635610368        7.1122294444        3.8442276708
  C        13.1821144864        5.7832016853        5.3601821101
  H         9.3529466423        7.2115935241        4.4991831332
  H        10.0949703909        6.8641857716        2.9332265252
  C         8.4605535272        5.4642496035        3.2662420617
  H        11.4053135953        4.6768836722        1.8690362616
  C        11.7250092287        1.7584307058        1.2012783752
  H        12.0233249988        3.3705552010       15.5415123898
  H        11.7381935891        1.6901717230       15.5761942745
  C        13.4970804682        2.2097274893       16.5636892413
  C         6.7112270234        8.6686067556       16.6117087934
  H        12.8711790638        5.1855624398        6.1654774709
  H        13.5472867739        5.0266626152        4.7108459595
  C        14.3748689064        6.5705792684        5.7702516306
  H         8.1127714726        4.8522089252        4.1296310555
  H         8.6972783371        4.6828142133        2.5689663588
  C         7.2770176678        6.3610640996        2.7915175124
  C        11.7903465215        0.3352294817        1.0631598787
  C        11.7737521771        2.4686363483       -0.0767901029
  H        14.0834186398        3.1264441706       16.4679344361
  H        14.0707647355        1.3758627170       16.3698619663
  C        12.7520675585        2.1381359240       17.8955758764
  H         6.8113884379        9.7040575779       16.5964530614
  C         6.3209842946        8.2059732570       17.8701374849
  H        14.0729883302        7.2897899799        6.4961021454
  H        14.8796954189        7.1129914687        4.9358826881
  C        15.4335260581        5.6748035622        6.4363750274
  H         6.8721043219        6.9832208462        3.5504098927
  H         7.6391709090        7.0292050940        2.0398518228
  C         6.0590383749        5.5166448021        2.3158667030
  N        11.7178922354       -0.5701850145        2.0963133939
  C        12.0464216897       -0.3155664048       -0.1970942659
  C        12.1236944031        1.8723002298       -1.2813223641
  H        11.4309768085        3.4791351942       -0.1306864958
  H        11.6961370715        1.7845424558       17.9730282015
  H        12.6889224088        3.1816576620       18.2624752380
  H        13.4466692131        1.7004238027       18.5340177684
  S         6.0091412688        6.5643150713       18.3819778114
  C         6.2619058163        9.2381610519       18.9620317549
  H        15.5796386767        6.3025908409        7.2510730948
  H        15.0469754052        4.7379282046        6.6675720156
  C        16.7420531007        5.3793584467        5.6262707254
  H         5.7494673967        4.7775012494        3.0517139562
  H         6.3796284168        4.9654794152        1.4441963725
  C         4.8799483059        6.3946575958        1.8854675965
  S        11.7868679718       -2.0050953111        1.4413468989
  N        12.1238934277       -1.6930918860       -0.0909439035
  C        12.3270105241        0.3665741232       -1.4175061574
  H        12.1907242772        2.5674399018       -2.0978541653
  C         5.9841989249        7.2795285909       20.0263463919
  N         6.0292888270        8.6299636642       20.0986203032
  O         6.4415706513       10.4596740491       18.8931044686
  H        16.6106814711        4.6843301606        4.8152562097
  H        17.2516773436        6.3430191947        5.3166457796
  C        17.7777118005        4.8194042603        6.5830231154
  H         4.1775755184        5.8501498874        1.2276721676
  H         4.3164729499        6.6564321984        2.7588653693
  C         5.2110720889        7.7690709047        1.2927407230
  C        12.7142661170       -0.3062390870       -2.6384422576
  S         5.6151578454        6.4117346959       21.5274834685
  C         6.1179426557        9.4376259437       21.3285029187
  H        17.2670878144        4.3077206159        7.3996548540
  H        18.1855349248        3.9971117708        6.0529560647
  C        18.7301371733        5.9112111895        7.2263856015
  H         5.6967720902        7.6959532669        0.3511554462
  H         5.9264265553        8.1994298801        1.8786946589
  C         3.9315881190        8.6704567401        1.1898933168
  H        13.0227403747       -1.3150469913       -2.4846107751
  C        13.3301141776        0.2084119469       -3.8120400389
  H         5.5559433317        9.1077250149       22.1132290983
  H         5.7864507465       10.4473878409       21.2077446542
  C         7.5077188237        9.5159001156       21.7321684753
  H        19.3743393044        5.6003978417        8.0208229607
  H        18.0624256771        6.7028279493        7.5887769947
  C        19.8218203814        6.3964832527        6.2417970126
  H         4.1742647523        9.4522072128        0.4820931072
  H         3.0463518962        8.1612018817        0.8403330623
  C         3.5830012025        9.2315693958        2.5807880110
  S        13.9570064928        1.7977859929       -4.1481063219
  C        13.4841380986       -0.7793652733       -4.9319486197
  H         7.5718335191       10.4885768256       22.2435394714
  H         8.0654685938        9.4173881283       20.8020758605
  H         7.7278181210        8.6414441184       22.3084352171
  H        19.9858932128        5.6761887443        5.4463396431
  H        19.5934932561        7.4018357873        5.8333334597
  H        20.7839255534        6.2746081312        6.7636140384
  H         3.0427106988        8.4863145244        3.1457820059
  H         4.4617049713        9.4475251963        3.2254961475
  H         2.9404763619       10.0799572482        2.5847328081
  C        14.4008562231        1.1445033761       -5.7506478684
  N        14.2333277406       -0.1823809933       -5.8705230187
  O        13.0588616450       -1.9115053292       -4.7668728976
  S        14.8507285840        2.1098014152       -7.1499243864
  C        14.4857187950       -0.9804223964       -7.0516067026
  H        14.9702110339       -1.9185889014       -6.7745912482
  H        15.2683198656       -0.4915746316       -7.6362305265
  C        13.2265513304       -1.1459805225       -7.9539278853
  H        13.1639250835       -2.1536594575       -8.1578715303
  H        13.3602099266       -0.5821571531       -8.8912695616
  H        12.2579387363       -0.8881601491       -7.5300605586
