352
 i =    72000, time =    36000.000, E =        98.5381662637
  H        11.9993261671        7.1381116132       32.3914117142
  C        11.7348137613        6.0546122151       32.2656412915
  H        12.7285748541        5.5589021623       32.0541437740
  C        10.7787824467        5.8410860066       31.1391543391
  C        11.2553429165        5.6759672774       33.6502371718
  C        11.3938568569        6.1505604743       29.7884029678
  H        10.3703396043        4.7887148706       31.1889302702
  H         9.9248516549        6.5407764757       31.2643280755
  H        12.0362106342        5.5095995678       34.4078479913
  H        10.5908780818        6.4968766214       33.9546173282
  H        10.7930440270        4.7001414407       33.6966999793
  C        10.3896954525        6.4620863858       28.6370079035
  H        11.9815829331        5.3259620050       29.4110797331
  H        12.1703790439        6.9362193252       29.9056688871
  C        10.8187377597        6.1573542962       27.2387473115
  H         9.5142795112        5.9135011675       28.7417061916
  H        10.1586278247        7.5036386461       28.7160684027
  C         9.6653696366        5.5856501326       26.4274811077
  H        11.6526160577        5.4222202110       27.0209242778
  H        11.1484248447        7.0700833496       26.7243297035
  C         8.4173714101        6.3112463357       25.9393052126
  H         9.9808383354        5.2220378442       25.4440556434
  H         9.2658387955        4.6994886723       27.0326022371
  C         7.3332519783        5.5010940423       25.2164666220
  H         7.9887487768        6.9310929386       26.7414282337
  H         8.7892574775        6.9866492965       25.1346228659
  C         7.1005175125        4.1808214892       25.9103303747
  C         7.6714618400        4.8014191121       23.9235900329
  C         6.0339150872        6.3687992860       25.1347548655
  C         7.2413835613        3.0417635803       25.0911063695
  C         6.5235909760        3.7590290323       27.1205499869
  C         7.6209734323        3.4456620914       23.8339491309
  C         8.1947255722        5.3713540195       22.7760117680
  H         6.1539781367        7.3470919164       24.6138732130
  H         5.6953915449        6.6494594629       26.1037423060
  C         4.8096692765        5.6124771285       24.4927819419
  S         6.9506872845        1.5196785110       25.7962998708
  C         6.5393281374        2.3574508592       27.2801154447
  H         6.2469471525        4.5155820903       27.8064044726
  C         8.0222961414        2.7925700896       22.6827801003
  H         8.2903862460        6.4695057493       22.7246823292
  C         8.6316420702        4.7400003808       21.6236195937
  H         4.9253930222        5.2171258597       23.5267854576
  H         4.5953832494        4.6876767384       25.0650899075
  C         3.5205260937        6.5610889811       24.3239424498
  C         6.1125466730        1.6796425225       28.5247826036
  C         8.5364620012        3.3771829266       21.5405406667
  H         8.0072944968        1.7336365490       22.6275586775
  C         9.0438571909        5.0699606795       20.3799851544
  H         2.9677780783        6.0415893530       23.6229740728
  H         3.7791118836        7.5250207441       23.8531659277
  C         2.8041499596        6.8125246836       25.6807876948
  C         6.1982986039        0.2531181099       28.7779579091
  C         5.5048279751        2.4843219599       29.5951280931
  C         8.9884351493        2.5773797924       20.3043083381
  C         9.1964480636        3.9588813117       19.5556410254
  S         9.4150536961        6.5614810966       19.6197902180
  H         2.1216879023        7.6393740779       25.5946604114
  H         3.5408925568        7.1638142837       26.3704801505
  C         2.0512274202        5.5858162455       26.2129916739
  N         6.7329767339       -0.7036242681       27.8965428718
  C         5.9309386692       -0.3161217299       29.9840785110
  C         5.2235362045        1.8808397318       30.8402206933
  H         5.2555413414        3.5269921351       29.4830267271
  C         7.7839222393        1.8842285844       19.6154017479
  C        10.3463221256        1.7494465873       20.3374286342
  C         9.6993085400        4.4170849165       18.3810088124
  C         9.8351955468        5.7741366978       18.2274652312
  H         1.2446031413        5.2407966465       25.5399797042
  H         2.8107115611        4.7874565937       26.0775212120
  C         1.4651763621        5.7294334758       27.6533811778
  S         6.8357617722       -2.1528930076       28.6399091413
  N         6.2278419113       -1.6717753880       30.0808905745
  C         5.4293225234        0.4559883142       31.1347829853
  H         4.7944457552        2.4708697153       31.6032482589
  H         7.4276465179        1.0308434766       20.2003256250
  H         7.9797161790        1.3019449064       18.6491554135
  C         6.5148003278        2.7156705336       19.4790932340
  H        10.4100210010        1.2734134159       19.3269627594
  H        10.3131573239        0.9657113248       21.0640247417
  C        11.5815404288        2.5528268993       20.7183692614
  H        10.0118403893        3.6499466215       17.6375967095
  C        10.1945415440        6.4193243331       16.9950349127
  H         0.6494656625        5.0467313711       27.7755413110
  H         1.0768833894        6.7372645847       27.7890407603
  C         2.5337295247        5.3690447380       28.6739545338
  C         5.4946451725       -0.1090304275       32.4198297643
  H         6.7850219870        3.6473598361       18.9659066204
  H         6.1933387265        3.0527888353       20.5065524701
  C         5.4496977349        1.7943505239       18.8462199352
  H        11.3626555457        3.3221675028       21.4712224457
  H        11.8619709097        3.1679843677       19.8641497124
  C        12.6576118298        1.5702533275       21.1417635714
  C        10.1147302132        7.8527800198       16.8165884523
  C        10.6198444898        5.6475532443       15.7974413556
  H         3.0051707161        4.4057984738       28.4002062824
  H         3.3405656367        6.1361223024       28.6497118181
  C         1.9052884307        5.3530777220       30.0746260976
  H         5.7910442789       -1.1713042206       32.4301580943
  C         5.1177219823        0.3857220926       33.6874793226
  H         5.1203883228        1.0975932793       19.6366483230
  H         5.9105481372        1.2095295543       18.0266499179
  C         4.2725122917        2.5619496986       18.2570624533
  H        12.4229015319        1.2332322802       22.0683438442
  H        12.7696792087        0.6848065040       20.5387694309
  C        14.0041084225        2.2731684082       21.2931411337
  N         9.8212398976        8.7701474245       17.8307291669
  C        10.4066720547        8.4599015521       15.6446224744
  C        10.9553835719        6.2878382628       14.6218546856
  H        10.5176487993        4.5887329390       15.8052866756
  H         1.4382788101        6.3334514008       30.3606447646
  H         1.2101595616        4.4702356637       30.1278293731
  H         2.5406404073        5.2411589662       30.9052863107
  S         4.5749819742        1.9479565878       34.1493835475
  C         5.2564948024       -0.6228855137       34.8005447987
  H         4.0942487876        3.5119719448       18.7730100589
  H         4.3130092374        2.8379304095       17.2274808105
  C         3.0095578310        1.7550431713       18.5217697461
  H        14.1332458988        3.1255243478       20.6039000217
  H        14.7345226284        1.4834965630       21.1650859847
  C        14.2791696823        2.7074684146       22.7287046491
  S         9.9666949159       10.2829511490       17.2832386359
  N        10.3268757843        9.8622574564       15.7552700571
  C        10.6787491364        7.7594771383       14.4940622057
  H        11.1127608148        5.6431980508       13.7302448722
  C         4.5963898804        1.2108662169       35.8222194005
  N         4.8768645789       -0.0595262630       35.9313530558
  O         5.4979622787       -1.7579886841       34.5997868818
  H         2.1456713466        2.3609807646       18.4118945639
  H         2.9606153308        1.4226805091       19.5660844758
  C         2.6274890543        0.5404663325       17.6607301993
  H        13.2934389822        3.0688855322       22.9791321727
  H        14.3732725326        1.8310605647       23.4166690551
  C        15.3078810305        3.7930465955       22.9516674840
  C        11.0532577141        8.5261973418       13.3444206230
  S         4.2776558684        2.1122319042       37.3457610804
  C         5.0268925642       -0.8088897138       37.1688571044
  H         2.0871161943        0.8754484045       16.8016025917
  H         3.5501207559        0.1959737727       17.1899818332
  C         2.0573420165       -0.6244341415       18.4791991816
  H        15.1951278271        4.1659110324       23.9631156435
  H        15.1331965521        4.6103310689       22.2291201733
  C        16.7163129139        3.3958610614       22.7278997627
  H        10.7058105747        9.5448690666       13.3300165467
  C        11.6134325762        8.2057752140       12.1204187493
  H         4.2889758629       -0.3952864267       37.8657867271
  H         4.7822997014       -1.8998451944       37.0038363706
  C         6.4815466844       -0.7686585512       37.6907683596
  H         1.1263307807       -0.4021842382       18.9142405843
  H         2.7253593524       -0.9109209740       19.2519226621
  C         1.7987137465       -1.7771920593       17.5868138092
  H        16.8064178279        3.2811442651       21.6981423711
  H        17.2986493848        4.2436348339       23.1146465505
  C        17.2192039182        2.1846569461       23.4853895826
  S        12.2172770519        6.6322570651       11.6632288130
  C        11.7808452112        9.2540940338       11.0784566500
  H         6.7479871468        0.3010193311       37.8791270470
  H         6.5632900856       -1.3448013909       38.5525078921
  H         7.2651767797       -1.1051887293       37.0633545669
  H         1.3656067534       -1.5199191428       16.6312032435
  H         1.1363803565       -2.4829574933       18.0581336793
  H         2.7519283983       -2.2848137724       17.3523523500
  H        16.5549439972        1.3508897836       23.8620886204
  H        17.8336134589        2.5607473864       24.3555136777
  H        17.9608566252        1.7462810336       22.7760806017
  C        12.6567080723        7.3758038984       10.1444932421
  N        12.4378156770        8.7078729665       10.0198852858
  O        11.3577329000       10.3793049561       11.0179208031
  S        13.5410646443        6.4629493091        8.9128790725
  C        12.6527547661        9.5084468802        8.8266139223
  H        12.9556108716       10.5739153817        8.9861815000
  H        13.4869505489        9.1324542794        8.2539197981
  C        11.4180061661        9.4613598203        7.9441367931
  H        11.0770701778        8.4383807098        7.9624924060
  H        10.6638627454       10.2102131733        8.2523066357
  H        11.7152216859        9.5823863954        6.8917598096
  H         1.9429076432        2.2307500533       12.2985202369
  C         3.0217220467        2.4911091040       12.0555889723
  H         3.5463115909        1.5463114903       11.9416705406
  C         2.9740282861        3.3023945942       10.7311994128
  C         3.7138363678        3.1334833694       13.2971244279
  C         4.2155237340        3.4505913686        9.9596779849
  H         2.5899329528        4.2929707102       10.9262265786
  H         2.3175321987        2.8121919227       10.1351926640
  H         3.6390426117        2.5250601174       14.2241989373
  H         3.4603017205        4.1811462641       13.6072782171
  H         4.7661140957        3.1703958782       13.0368425536
  C         4.7247049018        2.0586702503        9.5594998780
  H         3.8453981691        4.0073818424        9.1053345783
  H         4.9078999986        4.1959707168       10.4614831832
  C         5.5805451443        2.1311722914        8.2551205341
  H         3.9607021940        1.3132998089        9.4655142671
  H         5.3850517064        1.6461789195       10.3220800489
  C         6.8682008687        2.9791715940        8.3203905204
  H         4.9048024043        2.4931559934        7.5316488471
  H         5.8857081103        1.2035423388        7.8418713016
  C         8.0852238440        2.2247745395        8.7450184388
  H         7.1734906111        3.2980453668        7.3647083453
  H         6.5637047401        3.9047771064        8.7909291560
  C         9.3064897129        3.1482690822        8.9727636947
  H         8.3296926586        1.3194746986        8.1393897474
  H         7.9017994886        1.7736590511        9.7169441679
  C         8.9351472786        4.4671002441        9.6840086788
  C         9.7959158809        3.8902035772        7.7704500297
  C        10.3842067935        2.4892206905        9.7226315945
  C         9.3455570889        5.5754880891        8.9757898571
  C         8.3109956425        4.8272613191       10.8830325091
  C         9.9018292093        5.2571844180        7.7567851202
  C        10.2161902576        3.2644705136        6.6159827457
  H         9.9738545504        2.1283861827       10.6357621183
  H        10.6204658551        1.6008061526        9.1334696066
  C        11.6515236393        3.2253065182       10.1438552242
  S         8.7805129337        7.0358451010        9.6590233483
  C         8.2221423398        6.1885046174       11.0410120013
  H         7.9350813173        4.0611546447       11.5415316562
  C        10.3221112749        5.9206204737        6.6222277880
  H        10.2304798183        2.1780317874        6.6471568485
  C        10.6154721454        3.9170353539        5.4890653195
  H        11.4824335497        4.2278206423       10.4624229226
  H        12.1978932683        3.3637425411        9.1683364587
  C        12.4934674926        2.4472436716       11.2383608166
  C         7.7390857110        6.8871525704       12.3026820953
  C        10.7322528105        5.2738966165        5.4669729201
  H        10.2779450065        7.0117237347        6.5435899108
  C        11.0238217410        3.5186072261        4.2375039695
  H        13.2034017441        1.9410715252       10.6466803850
  H        11.9032407604        1.6956549861       11.5679495393
  C        13.0753555568        3.3072223507       12.3687193739
  C         7.7397053855        8.2650628115       12.5431696831
  C         7.2061750523        6.0729186185       13.4869862072
  C        11.0519603892        5.9348856829        4.2223026505
  C        11.1751636825        4.6304272673        3.4212380817
  S        11.2578096965        2.0052290038        3.3981755004
  H        13.8705792678        4.0264217859       12.0257965157
  H        12.3862387655        4.0107935075       12.8326218822
  C        13.5814641542        2.5473451635       13.5462708338
  N         8.1734436125        9.2201552066       11.6841614919
  C         7.4372805920        8.8720970179       13.7920230271
  C         7.0306131683        6.7001348166       14.7461897925
  H         6.9071324980        5.0216230665       13.4287622933
  C        12.4016538998        6.5990461092        4.2384915462
  C         9.9578646017        6.8415784925        3.5722178238
  C        11.4880588533        4.2292855165        2.0862538972
  C        11.6565565551        2.9033691903        1.9559182998
  H        14.2230842126        3.2219724843       14.1047901180
  H        14.0786716416        1.6250686237       13.3903531195
  C        12.4302559565        2.1168559756       14.5178146690
  S         8.0932830469       10.7198443555       12.3383013240
  N         7.5958180085       10.2372087306       13.7844718898
  C         7.0583335312        8.1602186253       14.9306722017
  H         6.7369901808        6.1746899454       15.5729219378
  H        12.3194846903        7.5027177140        4.7699856519
  H        12.6011735174        6.9438174325        3.2106384498
  C        13.6221716510        5.6932470535        4.6876128038
  H         9.6732152002        7.5837469891        4.3394731645
  H        10.3537194373        7.3305414493        2.6269263887
  C         8.6441632747        6.1877600160        3.2410202520
  H        11.6334975665        5.0336210918        1.4262670275
  C        12.0068566914        2.1875065569        0.6736660746
  H        11.4783984891        2.4953919382       14.1833067001
  H        12.4587356641        1.0060842814       14.5522161121
  C        12.4988096433        2.7443126248       15.9059240461
  C         6.8805780845        8.8242782010       16.2178460089
  H        13.4132853941        5.2116490582        5.6562639715
  H        13.8287930801        4.8715942869        3.9484242258
  C        14.8518051884        6.4979546895        4.9255674145
  H         8.2726730613        5.6359552488        4.0823225978
  H         8.8918197913        5.4459801548        2.4907328813
  C         7.6899653714        7.2046226628        2.6205886201
  C        11.9405094006        0.7488357898        0.4794267730
  C        12.4110099948        3.0093298650       -0.5234387912
  H        11.6232283211        2.4267263007       16.4530513321
  H        12.5293728395        3.8199522166       15.9345313888
  C        13.6619418155        2.1770272576       16.7229164987
  H         7.0759944568        9.8726164331       16.1772839335
  C         6.6851330697        8.3949236949       17.5065679523
  H        14.7875382938        7.1720828945        5.8568623157
  H        15.1789419964        7.1777792490        4.1808002799
  C        15.9344373198        5.5297446410        5.3621118754
  H         7.3305300296        7.8713179681        3.4168413106
  H         8.1464217836        7.7535340829        1.8600055452
  C         6.4960350046        6.4474815637        2.0963839119
  N        11.6129671168       -0.1952864809        1.4299813135
  C        12.3339364614        0.1719886526       -0.7011777538
  C        12.6452168860        2.4181809042       -1.6962576353
  H        12.5598899877        4.0698593669       -0.4606612913
  H        14.6406230236        2.3374414492       16.0930045066
  H        13.5936371996        1.1957915675       17.1625565398
  H        13.9278990153        2.8217185001       17.5204379552
  S         6.3393555644        6.7815542984       18.0041747442
  C         6.5934942418        9.4839357663       18.5051360701
  H        15.4743553753        4.8187070888        6.0645265277
  H        16.2194297343        4.9409204680        4.4685067170
  C        17.1638473618        6.2160838283        5.8960147731
  H         6.0915040923        5.8748680946        2.9186242901
  H         6.8023972321        5.6615234247        1.4263524175
  C         5.5718024904        7.3843344572        1.3574197249
  S        11.7626191410       -1.6487593960        0.7526320092
  N        12.2084352758       -1.2415025119       -0.7005604004
  C        12.6382574833        0.9198102717       -1.8715036199
  H        13.0049438202        3.0133119638       -2.4851529526
  C         6.2464950071        7.5383908479       19.5763100216
  N         6.3332864645        8.8826003111       19.6496451537
  O         6.8749806039       10.6655700131       18.3145943372
  H        17.8016305480        6.4784575997        5.0312813020
  H        16.9866319723        7.1613783888        6.4538198821
  C        17.9645566615        5.3370209690        6.8901029650
  H         6.2027842375        8.1417474864        0.8003021151
  H         5.0924739402        6.8217462079        0.5317371367
  C         4.5221722702        8.0673178698        2.3004235600
  C        13.0494105743        0.1870665198       -2.9991738412
  S         5.7204953681        6.5860788050       21.0176217137
  C         6.2990733626        9.6946521513       20.8922559413
  H        17.3401639460        4.9218336622        7.7216289102
  H        18.4109837489        4.5502161363        6.2884076052
  C        19.0934466292        6.1901951867        7.4579117271
  H         5.0339614273        8.3656284094        3.1963691623
  H         3.7652067563        7.4209576730        2.6202991476
  C         3.8423550850        9.4441775388        1.8498739773
  H        12.8722385045       -0.8504677778       -2.9998745959
  C        13.4811772128        0.6502307388       -4.1715490491
  H         5.5578605884        9.3043732592       21.5279106504
  H         5.9117121686       10.7257955441       20.6544419416
  C         7.6232626741        9.7017067358       21.5776633575
  H        19.3958158797        5.7736687591        8.4246659055
  H        18.6213010759        7.2172367946        7.5811627648
  C        20.3035993802        6.2740590513        6.5347369122
  H         2.8132105279        9.3516995183        1.5643800029
  H         3.7460488181       10.0763198150        2.7098288245
  C         4.7117346880       10.2398731071        0.9033125629
  S        13.9990394286        2.2557740350       -4.6572183284
  C        13.6185865738       -0.3717964195       -5.3238327584
  H         7.4998113011        9.0783308947       22.4988576246
  H         7.8328901370       10.7509490980       21.8838259056
  H         8.4392535235        9.2791206827       20.9904750235
  H        20.7825413991        5.3595230905        6.7771913692
  H        19.9998112433        6.4783021425        5.5017654822
  H        21.0415527968        6.9675290381        6.8825117799
  H         5.7459863539       10.4005189901        1.2446511005
  H         4.8193634053        9.6751802196       -0.0083492000
  H         4.2757038851       11.2114098169        0.5971877634
  C        14.4276286374        1.6111080916       -6.2613060281
  N        14.1357293551        0.2892861960       -6.4189047044
  O        13.2917205161       -1.5484377168       -5.2451990092
  S        14.9552002830        2.5600225642       -7.5701191876
  C        14.2045542346       -0.4987941033       -7.6497985560
  H        14.4877748226       -1.4577645639       -7.2919825732
  H        15.0562634595       -0.1529242437       -8.2897191318
  C        12.8510705281       -0.6460377024       -8.3842154491
  H        12.9888879822       -1.2162391297       -9.3144965419
  H        12.5136201410        0.2618840509       -8.7169585272
  H        12.0829515841       -1.1577615800       -7.8293290740
