352
 i =    60800, time =    30400.000, E =        98.5687866226
  H        11.3053011517        4.5428387900       31.7421644769
  C        10.7087058024        5.4110388318       31.9857490106
  H         9.7327579838        5.2199492455       32.0911191046
  C        10.7093191471        6.4928879175       30.9285144702
  C        11.0753080895        5.6542430468       33.4274972173
  C        11.1477986788        6.1117167132       29.5270571385
  H         9.6655311687        6.8041226443       30.8970058244
  H        11.3577755373        7.3552192385       31.0487564136
  H        10.9587235982        4.7524337677       33.9640787502
  H        12.0898714817        6.0691360284       33.5105304979
  H        10.2461973638        6.3302718186       33.7627532975
  C        10.0274211044        5.9418393466       28.5765726955
  H        11.5930722900        5.1045405589       29.7022299842
  H        11.9422419945        6.8027046033       29.1486066985
  C        10.3634333191        5.5437894103       27.1941932423
  H         9.3134119796        5.2075208862       29.0067143021
  H         9.3820716725        6.8300630464       28.6027482564
  C         9.2719036659        4.7495483627       26.4021582587
  H        11.0868489195        4.7522077553       27.3377414987
  H        10.7685261857        6.3031796120       26.5485123625
  C         8.1368235597        5.6625331954       25.9053727513
  H         9.6362488079        4.2920086715       25.4580326450
  H         9.0475792922        3.9700442739       27.0966611635
  C         7.0199474248        4.8327312645       25.3064062857
  H         7.8027323743        6.3872720087       26.6314080853
  H         8.6311412196        6.2673495056       25.1680766059
  C         6.6111690885        3.5477233537       25.9595915333
  C         7.5080223833        4.1180357139       24.0429478547
  C         5.7278831557        5.5586403403       25.0736614729
  C         6.9959313449        2.4345197253       25.2375768419
  C         6.0787368174        3.1790192165       27.2047653866
  C         7.4500094186        2.7518584049       23.9557363513
  C         7.9137788236        4.7312737047       22.8828847196
  H         5.8908940159        6.4719957727       24.4979999877
  H         5.3271000001        6.0329288348       25.9978366129
  C         4.5212385836        4.8414485434       24.3494157974
  S         6.6877304005        0.9413697769       25.9737562566
  C         6.1667817572        1.7892735033       27.3543464616
  H         5.8082796890        3.9086801145       27.9584273329
  C         7.7732856248        2.1345471020       22.8188684013
  H         7.9369676030        5.7961785162       22.8123016230
  C         8.2414009115        4.0717000291       21.7514180456
  H         4.8788707970        4.6924164430       23.3542618964
  H         4.3910970897        3.9058125546       24.8408883610
  C         3.0797534383        5.4820809799       24.3001706368
  C         5.8125395094        1.1304129324       28.7075521690
  C         8.2573033895        2.7318420745       21.6252916279
  H         7.6537285088        1.0136407819       22.7589797119
  C         8.6705821190        4.4942451513       20.4923951930
  H         2.4670876468        4.9007395087       23.6623620617
  H         3.1239406333        6.4581227769       23.9093773003
  C         2.3980001175        5.8227761729       25.6026576652
  C         5.8698773680       -0.3025296072       28.9485361265
  C         5.5536555468        1.9332323309       29.9707423086
  C         8.7080092775        2.1181438578       20.3096029017
  C         8.9753624461        3.4257534690       19.6406059631
  S         8.8677624972        6.0492795500       19.8429718810
  H         1.4869005962        6.4256228250       25.2946502422
  H         2.9556848697        6.4713387891       26.3210109078
  C         2.0835225158        4.5208084587       26.4026331145
  N         6.1819543424       -1.2416419418       28.0039173210
  C         5.6880145963       -0.8865387387       30.2260726115
  C         5.3787116858        1.3381115165       31.1923176806
  H         5.4569422615        2.9927300589       29.8382178479
  C         7.6664856759        1.4723764304       19.4642003253
  C         9.9606454418        1.3050317126       20.5695846623
  C         9.4298516352        3.9341547041       18.4101582262
  C         9.3396273863        5.3140631117       18.3317759801
  H         1.5253830784        3.8005009299       25.7711689714
  H         3.0579596301        4.1072735194       26.5193747229
  C         1.2108584133        4.6658403161       27.6451778790
  S         6.3812726424       -2.6564767382       28.7111382883
  N         5.8992978260       -2.2792486526       30.2031770487
  C         5.3606527035       -0.1639402927       31.3526959350
  H         5.1046356941        1.9220080333       32.0801182742
  H         7.3427232767        0.5843388684       19.9363637940
  H         8.1863615423        1.0898349576       18.6017747835
  C         6.4474710197        2.3937473953       19.1630466699
  H        10.4555102643        0.9017533483       19.6890891354
  H         9.6480679485        0.3942079779       21.1092060326
  C        11.0451283990        2.0038737399       21.3627178282
  H         9.6937195049        3.2498805199       17.5727859299
  C         9.6627104792        6.1096714418       17.0371653171
  H         0.7579157112        3.6329387269       27.8907954811
  H         0.3645675547        5.3488616525       27.6034024452
  C         1.9672771632        5.0036497040       28.9150494159
  C         5.1225840070       -0.8363212171       32.6116915523
  H         6.6792234067        3.4401344304       18.8669398247
  H         5.9525248756        2.4110517048       20.1243450744
  C         5.5834472014        1.8279055912       18.0623168576
  H        10.6915407914        2.0033732160       22.3839292526
  H        11.1411970334        3.0775324164       21.1967603981
  C        12.3395641971        1.3011256089       21.4199847982
  C         9.8289665386        7.4943210551       16.8652304591
  C         9.7526488744        5.3222077544       15.7933222974
  H         2.6757396933        4.1456206968       29.0258166497
  H         2.4831588834        5.9195066890       28.9110782599
  C         1.0324284837        5.1462246443       30.1990578287
  H         5.2791259959       -1.8427983674       32.6003437557
  C         4.8242931173       -0.4476028538       33.8772610797
  H         5.7227686379        0.6998606571       17.9564560061
  H         5.8744810607        2.1223161624       17.0841766641
  C         4.1322216565        2.0596831274       18.3181707162
  H        12.0736202227        0.5483884842       22.1378627760
  H        12.5729599696        0.9026825747       20.4198534490
  C        13.4439081720        2.1566714974       21.9966856387
  N         9.6513689754        8.3918052013       17.9332655140
  C        10.0825608802        8.1240251767       15.7140134378
  C        10.2032623071        5.9331856168       14.6124977172
  H         9.5189800663        4.2274125484       15.7545870972
  H         0.3493583151        4.2285690183       30.2383352498
  H         1.6537525783        5.1062320579       31.1370601616
  H         0.4343454077        6.0132471010       30.0297133613
  S         4.3492075884        1.0941253160       34.3872317881
  C         4.8462293417       -1.4682987601       34.9789733286
  H         4.1863050662        2.5997963301       19.2636651463
  H         3.6912461503        2.5972616091       17.5228942224
  C         3.3145052461        0.8221955154       18.5157981553
  H        13.0895694480        2.8289997147       22.7368937208
  H        13.7838065836        2.8055489924       21.2495889414
  C        14.6253316946        1.4534725653       22.6382069726
  S         9.8018072610        9.9243591913       17.3976522151
  N        10.1330225231        9.5419397299       15.8442142519
  C        10.3647964098        7.4141296884       14.5335296285
  H        10.2386382989        5.4039796300       13.7080788592
  C         4.4704351143        0.4977846220       36.0026319154
  N         4.5982783308       -0.8557231759       36.1911644863
  O         5.1111273674       -2.7088440365       34.8089833966
  H         2.3643018146        1.1280180193       19.1132413464
  H         3.8318838843        0.1553044420       19.2593026375
  C         3.0111800595        0.1249500119       17.2504150145
  H        14.2023981262        1.0716468195       23.5479458593
  H        14.8793928436        0.5944986572       21.9775936236
  C        15.7677683989        2.4155882278       22.9970840824
  C        10.6766302594        8.1402443345       13.3431049422
  S         3.8984474939        1.2728169539       37.4314467286
  C         4.5515901350       -1.4470990658       37.4594997548
  H         2.2295286531        0.7198534565       16.8184499964
  H         3.9598178260        0.1202212191       16.6227310053
  C         2.5109162306       -1.3434314419       17.4324929495
  H        16.1901093673        2.1609529912       23.9425965337
  H        15.2581921594        3.3713219192       23.1450402323
  C        16.7598977353        2.5144539345       21.8191165871
  H        10.7136994581        9.1732232814       13.5831795306
  C        11.1691605697        7.7071113749       12.1458198678
  H         3.5874349795       -1.2829948743       38.0249596599
  H         4.5280853879       -2.5187428421       37.3194648358
  C         5.8328841309       -1.3486316218       38.1450063766
  H         3.3624076070       -2.0889064566       17.3490998196
  H         1.8623098961       -1.5260647966       16.5860128493
  C         1.6869704855       -1.7507493799       18.6792269749
  H        16.3701737593        2.4510439316       20.8500900739
  H        17.2996151167        3.4318277038       21.7888356637
  C        17.8845992828        1.4751071227       21.9797394431
  S        11.7253653609        6.0752733310       11.8936483034
  C        11.4573857291        8.6793530190       11.0918019689
  H         5.9729780658       -2.2668481876       38.5529855908
  H         6.7276751368       -1.2701023591       37.5277848346
  H         5.8032197909       -0.5920656106       38.9068463723
  H         1.4545185298       -2.8127689303       18.8192327949
  H         0.6902436894       -1.2661633486       18.6022413083
  H         2.1295322140       -1.5031282508       19.6911188651
  H        18.7056815785        1.7433711458       21.3679461047
  H        17.5346388930        0.4664277596       21.6310357754
  H        18.1814016982        1.3446434391       22.9885416095
  C        12.2743918721        6.7043802080       10.2722841909
  N        12.2314364153        8.0564001392       10.1415471469
  O        11.0921356478        9.8733994429       11.0443986575
  S        13.1292272897        5.6975887643        9.0629744680
  C        12.7377829294        8.8027576029        8.9222793185
  H        12.9973004726        9.7774189943        9.1666310511
  H        13.5695937711        8.2913530537        8.4427262743
  C        11.5860370319        8.7882201704        7.8685893539
  H        10.8227576834        9.3708173118        8.2650680610
  H        11.8562182380        9.3430271505        6.9542017832
  H        11.1238741819        7.7785870987        7.7520927724
  H         4.2282303552        1.3551780057       12.5554258777
  C         3.5364704085        2.1243742306       12.7404454056
  H         4.0932198877        3.0193837807       12.9019424194
  C         2.7775033426        2.3847906341       11.4132246920
  C         2.7546605020        1.8548364420       13.9700009268
  C         3.5355332037        2.8113403674       10.1234979518
  H         2.1011727853        3.2091116807       11.7000011584
  H         2.2138629835        1.4892193290       11.1399207064
  H         2.1925468107        0.8918970719       13.9076692716
  H         1.9550619693        2.5052115032       14.0750551427
  H         3.2643843453        1.8855586976       14.9239255091
  C         4.1478733742        1.5412564978        9.4519762827
  H         2.6830723160        3.1315321731        9.5259389153
  H         4.2060713436        3.6002087883       10.2847476074
  C         4.7845459096        1.8949826558        8.1027284258
  H         3.3183263331        0.8360355299        9.2543056717
  H         4.7374516406        0.9390134412       10.1466465310
  C         6.1037149107        2.7061983016        8.1244207184
  H         4.0044036162        2.3160682663        7.4126478341
  H         5.0181682695        0.9883366126        7.5805260897
  C         7.3118983200        1.7977153830        8.5892742412
  H         6.3292036223        3.0799101447        7.0903104364
  H         5.9269837191        3.4935778236        8.7813408279
  C         8.6843214596        2.5795943871        8.8014176544
  H         7.5832483227        1.0078108192        7.8012673120
  H         6.9774581770        1.4489258558        9.5837352246
  C         8.2763992498        3.8821365074        9.5005752346
  C         9.0876950554        3.2312747321        7.5166388114
  C         9.8299245855        1.9375750729        9.5512181150
  C         8.5048165866        4.9617751407        8.7024210384
  C         7.7115740139        4.2452427633       10.7679703189
  C         9.0024035492        4.5412838943        7.4567575870
  C         9.7556490310        2.6988707050        6.3840665187
  H         9.5682955178        1.2897548850       10.4224076875
  H        10.3024402514        1.2514761671        8.9167953091
  C        10.9667636366        2.7912752235        9.8168988753
  S         8.1164877112        6.4520611021        9.4902896480
  C         7.6987931407        5.6320387507       10.9428633068
  H         7.5931116852        3.4693903354       11.5078702237
  C         9.4115276241        5.2110525779        6.3383746194
  H         9.8792374143        1.6554358284        6.4437236993
  C        10.0465308764        3.4013914833        5.2352003383
  H        10.7062889527        3.7753855662       10.2073695845
  H        11.5807768397        2.9211879976        8.9451722815
  C        11.8175274387        2.2104139895       10.8850949064
  C         7.2409082027        6.2531947426       12.2492200326
  C        10.0048458769        4.7296108414        5.2089857725
  H         9.3853138794        6.2798428125        6.3219925076
  C        10.5653698282        3.0902328958        4.0313201743
  H        12.7451521615        2.8305755172       10.8703998503
  H        12.1036998742        1.2190427253       10.5617520757
  C        11.2860685464        2.2392645854       12.3317334071
  C         7.4843139259        7.5877690820       12.5635217998
  C         6.7580565726        5.3393023313       13.3908439812
  C        10.4876254961        5.5335186629        3.9706620028
  C        10.7738345918        4.2359671239        3.2239161509
  S        10.8576396079        1.5831059927        3.2940030979
  H        10.9723723287        3.2729522887       12.5789066846
  H        10.4822522276        1.6380978864       12.4049086504
  C        12.4011708578        1.9037743447       13.2881183866
  N         7.6766921795        8.5792076274       11.6226864323
  C         7.2554158876        8.1068447137       13.8492583057
  C         6.5697844186        5.8954112598       14.6630113865
  H         6.6191534471        4.2532336392       13.2470419208
  C        11.7963246094        6.2738828957        4.2530430602
  C         9.4666203038        6.4378566635        3.2489040279
  C        11.2343036074        3.7723680998        1.9242962686
  C        11.2768968039        2.3826070106        1.7984297881
  H        13.1918658348        2.6111844958       13.1985460723
  H        12.8664159442        0.9878751311       13.2290862760
  C        11.9406720063        1.8957239500       14.7347683805
  S         7.8377299439       10.0353286069       12.3426508174
  N         7.5156853497        9.5006667337       13.9054333895
  C         6.7584120515        7.3284274890       14.9271400027
  H         6.2027055591        5.2622127741       15.4645018405
  H        11.5155013962        7.0648428247        4.9471458219
  H        12.1396527187        6.8160127462        3.3540827181
  C        12.9098111254        5.4051292409        4.7427008795
  H         9.3299563720        7.3489521672        3.8471824479
  H         9.8841648986        6.8406304788        2.2959762961
  C         8.1730098829        5.7848618347        2.7735938091
  H        11.5447603521        4.5353397335        1.1842013677
  C        11.5469416639        1.6479158347        0.5825077667
  H        11.3456092936        2.7532549660       14.9878362055
  H        11.2592388122        1.0422100398       14.9418213211
  C        12.9991598519        1.7033196826       15.7935896831
  C         6.4863814659        8.0340326251       16.1625328547
  H        12.6498616393        4.8207884892        5.6135228098
  H        13.2296360191        4.6186377148        3.9607446038
  C        14.2594294950        6.1859911189        4.9566312539
  H         7.6895119902        5.2409721480        3.6020362173
  H         8.3508166275        4.9656749053        2.1018759989
  C         7.0970103838        6.7748591827        2.2302212550
  C        11.7787150027        0.2928872230        0.3860039067
  C        11.6665918197        2.4874526075       -0.6443448657
  H        13.8407924754        2.3266126716       15.6184556674
  H        13.2829278341        0.6370656799       15.8325310674
  C        12.5102009385        2.2839875398       17.1578568951
  H         6.7923840203        9.0748139673       16.0960063532
  C         6.2476442317        7.5773297436       17.4194691639
  H        14.0480515962        7.1022695960        5.5331617155
  H        14.7215410247        6.6524248563        4.0986147734
  C        15.3711294569        5.3036983061        5.4957657932
  H         6.8192564908        7.5253112337        2.9523511402
  H         7.5282135662        7.4116425229        1.4856398955
  C         5.9136258501        5.8939435467        1.7563949259
  N        11.7546307568       -0.6399172644        1.4005234253
  C        12.1696700562       -0.3006712593       -0.8384498816
  C        12.0959346743        1.9193614151       -1.8591573464
  H        11.3655412843        3.5515715575       -0.6733835645
  H        12.3856850995        3.3920814898       17.2023634601
  H        13.3340659443        2.2718577616       17.8961553019
  H        11.5991566246        1.8605426814       17.5821977182
  S         6.1072931964        5.9851271790       17.9546955807
  C         6.1811581872        8.6213490035       18.5163310673
  H        14.9292479574        4.4475618484        5.9004458938
  H        15.8600804637        4.9264677903        4.5589630558
  C        16.3461649488        6.1390304964        6.3820074117
  H         5.5475241627        5.0830169421        2.3875946172
  H         6.3151602549        5.3422317054        0.9077984082
  C         4.8596359666        6.7894669937        1.2824662684
  S        11.8134974570       -2.1625623968        0.7384999842
  N        12.1161367091       -1.6978408763       -0.8034969222
  C        12.4063561072        0.4517922069       -1.9945881529
  H        12.1746469267        2.5614285837       -2.7338676263
  C         5.7048586603        6.7294064665       19.5467099437
  N         5.8156006765        8.0682975135       19.6471073697
  O         6.2986777411        9.8346327209       18.3581015515
  H        16.8064011064        6.8387225634        5.7074405312
  H        15.9075162779        6.7541553588        7.2134915785
  C        17.4400297643        5.2167582352        6.9334053576
  H         5.4367909254        7.5121638506        0.6916432141
  H         4.2699193616        6.3244795104        0.4728580317
  C         4.0898273916        7.4261317511        2.4046322771
  C        12.6680304103       -0.2337034063       -3.1668173509
  S         5.3148301552        5.7880381301       20.9534307283
  C         5.8229984128        8.8062389838       20.8777750567
  H        17.1039023072        4.7244839882        7.8161097222
  H        17.6403533926        4.2680803189        6.3548609757
  C        18.8322330678        5.8683720363        7.0735645746
  H         4.6610649965        7.5906183384        3.2938170133
  H         3.2779894604        6.7317157684        2.7383935723
  C         3.4020842458        8.8225758031        2.0974103841
  H        12.3625430992       -1.2905428829       -3.2510475169
  C        13.1653667811        0.1644041927       -4.3527404623
  H         5.0512072591        8.4437767781       21.5556905465
  H         5.3920025822        9.7452854752       20.8142202225
  C         7.2877193090        8.7935896284       21.5250524982
  H        19.4108633577        5.3000202730        7.7844333143
  H        18.6761015061        6.7709244369        7.5332062390
  C        19.6628014467        6.0746091811        5.8057455939
  H         2.3281284557        8.7509305504        2.3573399130
  H         3.6877523737        9.5925176934        2.8204804373
  C         3.6072104002        9.3803981667        0.6929429514
  S        13.7376727629        1.7365787275       -4.7257681186
  C        13.2804481348       -0.8010394066       -5.4894908365
  H         7.5540159381        7.8616690739       21.8751963532
  H         7.4188674965        9.5278099030       22.4101152594
  H         8.0358695012        8.9281633705       20.7758583932
  H        19.3640197571        5.2403295974        5.1546657345
  H        19.5627975831        6.9841779919        5.3500359247
  H        20.7171294955        5.9320465907        6.1104042790
  H         3.2306737746       10.4010800465        0.7019778856
  H         4.5876511334        9.5073402204        0.3190999690
  H         3.0972718262        8.8431124050       -0.0683832518
  C        14.2811722351        1.0802040022       -6.3087118308
  N        13.9829779322       -0.2473137543       -6.4916537377
  O        12.8140502414       -1.9276338329       -5.4273072790
  S        15.3048143151        1.9451324649       -7.4567463381
  C        14.0408390608       -0.8898703685       -7.7513880175
  H        14.3807937438       -1.9491587982       -7.6021308747
  H        14.8770379208       -0.4747293932       -8.3035912655
  C        12.6721888191       -0.8108083859       -8.4166503757
  H        12.1093984126        0.0363007303       -8.1180432722
  H        12.1223079054       -1.7070385745       -8.1710165171
  H        12.8089799926       -0.6401160575       -9.4517779823
