352
 i =   125300, time =    62650.000, E =        98.2949126180
  H         9.0807279904        5.8506949703       32.3647496584
  C        10.0630635527        6.3762007481       32.5035705267
  H         9.7880828922        7.3056198904       32.8950891834
  C        10.6476088198        6.5684567014       31.0670404644
  C        11.0259439363        5.6730115927       33.4761757505
  C        10.9222633605        5.2855407357       30.2254790886
  H         9.8195438011        7.0428562017       30.5544412486
  H        11.4012274193        7.3902827016       30.9052878272
  H        10.6353755802        4.7274835388       33.8711713310
  H        11.9890555458        5.3748963407       33.0379640474
  H        11.2281185868        6.3112033951       34.3474914675
  C        11.3395697926        5.5448755757       28.7391899316
  H        10.0782532318        4.6367974249       30.1770114378
  H        11.6326580475        4.6843408240       30.7521780070
  C        10.3669278802        6.2488180501       27.8029507751
  H        12.3167576683        6.0843208891       28.7340945216
  H        11.6467102156        4.5893489175       28.1676427064
  C         9.2492202944        5.2850213655       27.2934362446
  H        10.9416782558        6.6493588310       26.9479692649
  H         9.8967110939        7.0416353065       28.3821285611
  C         8.4811898892        6.0910187904       26.2076027986
  H         9.6715078114        4.4485016940       26.8041871105
  H         8.5561315824        4.9772871759       28.0669421276
  C         7.2826648321        5.3176400083       25.5727707806
  H         7.9781117691        7.0670636962       26.5881645069
  H         9.1896055315        6.3366906473       25.4102129764
  C         6.9305755651        4.0305849113       26.3746399741
  C         7.7375849999        4.5195917049       24.3845685125
  C         6.0134695995        6.1083783914       25.3286290688
  C         7.3161494096        2.8865968021       25.6661080500
  C         6.2774621868        3.6425080373       27.5900124409
  C         7.8801486362        3.2064065944       24.4424914856
  C         8.2985419641        5.0369355196       23.1895229481
  H         6.1894360328        6.8775239802       24.6465732702
  H         5.6527273185        6.5551971436       26.2246864766
  C         4.7889176899        5.3822273762       24.7001540233
  S         6.9702530665        1.4284413581       26.4997657938
  C         6.2938952236        2.2885335874       27.8131344655
  H         5.8252918648        4.4423386498       28.2655576526
  C         8.3463697332        2.5150088046       23.3630469430
  H         8.2794474447        6.1279220991       23.1678210450
  C         8.7335027102        4.3234687786       22.1162465542
  H         5.0631985643        4.9501314630       23.7600252376
  H         4.6198267772        4.4419894703       25.2740545605
  C         3.6544774499        6.3480289697       24.6106421693
  C         5.8475849945        1.6488998945       29.0509491599
  C         8.7850018630        2.9710056128       22.1507455850
  H         8.4429620914        1.4218418449       23.4939617696
  C         9.1482547431        4.6686294118       20.8233099772
  H         3.0599533866        6.0090815495       23.7329124615
  H         3.9558293401        7.3134630392       24.2827560521
  C         2.8068957341        6.4747347333       25.9415606394
  C         5.8365177633        0.2480357155       29.3494721076
  C         5.3005114353        2.4918957475       30.1211247390
  C         9.1671700010        2.2367488430       20.8585219072
  C         9.4297507885        3.5921162608       20.0554959966
  S         9.4406667560        6.1641252873       20.0863334272
  H         2.0654112527        7.2661564879       25.8795213052
  H         3.4281938868        7.0829879752       26.6407874395
  C         2.1586860003        5.2306929953       26.5985372686
  N         6.0986580199       -0.7428342138       28.4028891229
  C         5.5201290867       -0.2710538692       30.6057366961
  C         5.0026971055        2.0379622258       31.3812660633
  H         5.2233666435        3.5587683031       29.9645296328
  C         7.8799338510        1.4879882076       20.4084642214
  C        10.4714232922        1.3603771452       20.9794262547
  C         9.8311975234        4.0285984239       18.7726198630
  C         9.7657900956        5.3888733169       18.5661428730
  H         1.7005853136        4.6609669728       25.8528566524
  H         2.9897132551        4.5819556009       27.0300793520
  C         1.0877836392        5.6256302162       27.5843250451
  S         6.2364132319       -2.1182626356       29.1742142026
  N         5.6558805976       -1.6711486279       30.6487732464
  C         5.1887532678        0.5193377298       31.7184369147
  H         4.6968949845        2.7712416874       32.1763783569
  H         7.5823555093        0.7092761081       21.1654501976
  H         8.0933427113        1.1018263119       19.3552931274
  C         6.6639782105        2.2977146335       20.1693235056
  H        10.8501642853        0.8258986257       20.0522586073
  H        10.3409000910        0.6951438263       21.8183398593
  C        11.5984558301        2.2173157157       21.3561078146
  H        10.1215593981        3.2592945725       18.0826318552
  C         9.9750696418        6.2006195327       17.2427634081
  H         0.2631054861        4.9200804853       27.4709562185
  H         0.6047381511        6.5870315811       27.4713100817
  C         1.4918942893        5.6084657548       29.0843339437
  C         4.8494839527       -0.1399242971       32.9188258903
  H         7.0215789965        3.1914672492       19.6567001758
  H         6.2471199931        2.7481335047       21.0180916299
  C         5.6483766862        1.7465803453       19.1916199240
  H        11.4264689888        2.9349903319       22.1684146471
  H        11.7997222782        2.8359779640       20.4957482415
  C        12.8824028919        1.4901249075       21.7095507292
  C        10.0002790842        7.6141978547       17.1941144115
  C        10.1514613997        5.4473148803       16.0069148331
  H         0.6600545759        6.1431287234       29.5693170726
  H         1.4725785265        4.6026869583       29.4870417857
  C         2.8786152990        6.2402209129       29.4049133161
  H         4.8995701138       -1.2369964782       32.9449466947
  C         4.5280097560        0.3633750063       34.0759054107
  H         5.2030966902        0.8339122000       19.5857250744
  H         6.0986711055        1.4611343422       18.2510188076
  C         4.5621458981        2.7487521212       18.8355542963
  H        12.7896729368        0.9628175728       22.6620940212
  H        13.1665551512        0.7085592071       20.9721420189
  C        14.0582740995        2.4159972491       21.8296442778
  N         9.6638137821        8.4715434039       18.2260522097
  C        10.2431770318        8.2981907858       15.9903652355
  C        10.4528742012        6.1395998041       14.8239464266
  H        10.1794958075        4.3890958281       16.0408638403
  H         2.9590523119        6.1281629456       30.5043690595
  H         3.7321663946        5.8906046244       28.9063941663
  H         2.7932420181        7.2476621772       29.1417853367
  S         4.3556892611        1.9859178598       34.4874646499
  C         4.4552597829       -0.5808584119       35.2419822465
  H         4.4742002110        3.4051488047       19.6474144286
  H         4.7428736207        3.3409563920       17.9400024846
  C         3.2869709295        2.0091886579       18.5596981367
  H        13.5541639109        3.2674266078       22.3869310105
  H        14.2757992445        2.8681631409       20.8374208710
  C        15.2841493468        1.8687113177       22.5665550431
  S         9.8525212275       10.0449131858       17.7268109132
  N        10.2390627731        9.6489919999       16.1679848723
  C        10.5155158484        7.6572330764       14.7891652937
  H        10.6187924484        5.5952363840       13.9522253007
  C         4.2862256394        1.4541368839       36.1518600670
  N         4.2327779413        0.1381022182       36.3374373925
  O         4.3893128774       -1.7870720723       35.1418190163
  H         2.5759879672        2.6645442824       18.1613785244
  H         2.8094707539        1.5996615086       19.4651054121
  C         3.3771543881        0.8406034036       17.5586262030
  H        14.9563016810        1.6366318358       23.5678366738
  H        15.4605560062        0.9734215601       22.0709217264
  C        16.6051064733        2.7172336939       22.4091821626
  C        10.8604896699        8.4178445148       13.6435528938
  S         3.9671299921        2.4986997174       37.5512956864
  C         4.1981367381       -0.5591461932       37.6347109754
  H         2.5400208503        0.9320187675       16.8607834858
  H         4.2885765735        0.8572311110       16.9949772215
  C         3.1693879038       -0.6171723463       18.1767048447
  H        16.4313921406        3.8189032036       22.5543561343
  H        16.9326598722        2.6470155024       21.4160587895
  C        17.7075567914        2.1795408957       23.2280548288
  H        10.5533450406        9.4219070612       13.7590897695
  C        11.4258071164        8.0791110153       12.4417464438
  H         3.4442452043       -0.0414355273       38.2661399910
  H         3.8600668504       -1.6090056398       37.6904356223
  C         5.5364144593       -0.5430382709       38.3509836433
  H         3.5517150620       -0.8240648770       19.2546972456
  H         3.7474507858       -1.3891370334       17.5668648271
  C         1.6479782907       -0.9440416515       18.2178366248
  H        18.1504012405        1.3621575825       22.7340779324
  H        18.4813446195        2.9270499798       23.1122885623
  C        17.2157356878        1.8387108133       24.5845690832
  S        12.0103613751        6.5136282063       12.0202209390
  C        11.5256103891        9.1443780993       11.3631117372
  H         5.4012508554        0.0012327029       39.2653182528
  H         5.9149103099       -1.5531408015       38.5558733211
  H         6.2937103533        0.0102443309       37.8118772166
  H         1.2770812583       -0.8767655396       17.2048822643
  H         1.1074518485       -0.2511739710       18.8724775785
  H         1.4578550194       -2.0142193893       18.3284815681
  H        16.7968991001        0.8689880281       24.5152777785
  H        16.5174628791        2.5723037870       25.0362404837
  H        18.0750025457        1.8085797432       25.2224309428
  C        12.4434928308        7.3151962493       10.4578861077
  N        12.0957387435        8.5642518702       10.2825745754
  O        11.1907036009       10.3084219981       11.6598713924
  S        13.1870865806        6.3254931460        9.1277714172
  C        12.2523231327        9.3401126168        9.0287863365
  H        12.4376617247       10.3962159819        9.1497155133
  H        13.0435186073        9.0623120268        8.4679258761
  C        11.0483205121        9.2653916515        8.1141801504
  H        11.1020912264        8.4515869476        7.3949064950
  H        10.1322591765        8.9907457990        8.6763691845
  H        11.0321445006       10.0524006401        7.4029046888
  H         2.6014122898        3.3589839154       12.8508904958
  C         2.7940836709        2.2956975333       12.5995606772
  H         1.9740130366        1.6696450158       13.0479785305
  C         2.9459496480        1.9727137215       11.1161724410
  C         4.0220627030        1.8680191296       13.3431437310
  C         4.2637565544        2.4091244657       10.3853127788
  H         2.0885846628        2.3982307629       10.6455187051
  H         2.8216321729        0.8818440530       10.9289146382
  H         3.7139640464        1.6104705184       14.3312519566
  H         4.6915523611        2.7148584551       13.3838296932
  H         4.4248826532        0.9685677943       12.7483103102
  C         4.8483612108        1.2881116052        9.4548393903
  H         4.0645836537        3.3549174579        9.8903846207
  H         4.9626719850        2.6573364132       11.1627912818
  C         5.6329420260        1.8024604931        8.2104303954
  H         4.0824485165        0.6826139612        9.0552475316
  H         5.5770658844        0.6024447553        9.9632331591
  C         6.8638528536        2.6567055577        8.5838648523
  H         4.8924886280        2.3932985359        7.6733496666
  H         5.9257344437        1.0543023627        7.5263445065
  C         8.0926532233        1.8653332541        8.9149368939
  H         7.1119191165        3.2717226189        7.7533473163
  H         6.4929562973        3.3647538663        9.3393825599
  C         9.3352292696        2.7123912833        9.2759711183
  H         8.3363196636        1.0827639213        8.2071421974
  H         7.7582405871        1.3364105550        9.7688767547
  C         8.9754516532        4.0605495463       10.0027476110
  C         9.8384269113        3.5176772495        8.1004276859
  C        10.5355132713        2.0113117596        9.9903265073
  C         9.1338130942        5.1894069413        9.2122702260
  C         8.5042613419        4.4713541116       11.2915897830
  C         9.6829493224        4.8571513973        7.9825835204
  C        10.3551484091        2.9369011153        6.9383576331
  H        10.1042048403        1.2114136850       10.5821537530
  H        11.0403718788        1.4705777202        9.2324105614
  C        11.5752970526        2.8584914752       10.5886570029
  S         8.6485968254        6.6082317257        9.8913974880
  C         8.1982598597        5.8073327175       11.3172709003
  H         8.4454476322        3.8041803460       12.1334555532
  C        10.0040701947        5.4521989673        6.7926633161
  H        10.3517543011        1.8451614029        7.0127387648
  C        10.7797802388        3.5490742675        5.8360584909
  H        11.0463084908        3.5813325341       11.2183828736
  H        12.1947294332        3.4310816188        9.8288193189
  C        12.5219208032        2.1499443461       11.5827257304
  C         7.7841824901        6.5436941428       12.5909820206
  C        10.6108802985        4.9006571934        5.7059478344
  H         9.7388341710        6.5210048100        6.7792148083
  C        11.1822022597        3.2192696322        4.5714486268
  H        13.5029946982        2.5826370323       11.5852177351
  H        12.5874402596        1.0547722550       11.2934105221
  C        11.8942541423        2.3063013186       12.9882650284
  C         7.7647293761        7.9146080412       12.7984351318
  C         7.1509961598        5.6785898426       13.6251754011
  C        11.0783591298        5.6078086876        4.5006311281
  C        11.3880269209        4.3247742472        3.7425736751
  S        11.4575797554        1.7463440478        3.7942680001
  H        11.3503342948        3.2249425469       13.1688573182
  H        11.1645043027        1.5786327276       13.1025648840
  C        12.9304436308        2.0402208568       14.0373368015
  N         8.0837394883        8.8283321649       11.8399885119
  C         7.3689091518        8.4432035099       13.9892314220
  C         6.8620881484        6.2380307671       14.8622499985
  H         6.9823428837        4.6000803684       13.4684529402
  C        12.3722646665        6.3716060558        4.6652791241
  C        10.0339800429        6.4973938818        3.8501087430
  C        11.7312420800        3.9395685017        2.4551482504
  C        11.7078384860        2.5969263487        2.3136798747
  H        13.5568113559        2.9075153214       14.2193460549
  H        13.5981938082        1.3366527092       13.5624096099
  C        12.4425058961        1.4030236832       15.3546551061
  S         7.9173941586       10.3221697151       12.5243490213
  N         7.4976283801        9.8121145780       14.0121457276
  C         6.8755040636        7.6904403275       15.1064084918
  H         6.3317945043        5.6271668988       15.5699185464
  H        12.1019142740        7.0656828160        5.4737744015
  H        12.5974090805        6.8980326219        3.6920671887
  C        13.5853083596        5.5490922002        5.0560599594
  H         9.9218407465        7.4706644585        4.3349047251
  H        10.3574947824        6.6236400867        2.8032498375
  C         8.7096301566        5.6500048985        3.7068058532
  H        11.9579897123        4.6529040581        1.6447469100
  C        11.9813559339        1.8070382275        1.0415566269
  H        11.4817475549        1.8168512282       15.6301183695
  H        12.2481447243        0.3908989426       15.0745517808
  C        13.4198883487        1.4306794543       16.5285619083
  C         6.6907270078        8.3291610147       16.3911168803
  H        13.3850624496        5.0159279337        6.0204855431
  H        13.8403793889        4.9044714127        4.2800466740
  C        14.7754047577        6.3744239190        5.3611189164
  H         8.3501756007        5.1118864800        4.5400377175
  H         8.8941118810        4.7380974280        3.1962757928
  C         7.6176324362        6.3257491497        2.9120876247
  C        12.0140344009        0.3695064205        0.7877830911
  C        12.2690248107        2.5293347651       -0.2023737123
  H        14.3994149986        1.6253593180       16.2284289096
  H        13.6121038305        0.4805296927       16.9730333127
  C        13.0852601410        2.4726568580       17.6689319338
  H         6.6712159703        9.4007552445       16.4106311843
  C         6.3849474101        7.8488509491       17.6300274776
  H        14.4068552783        7.1748214615        6.0387381379
  H        15.1632022910        6.8928423760        4.4248359358
  C        15.7827579811        5.4340416918        6.0828723666
  H         7.1943702489        7.1922487547        3.4175809315
  H         8.0162614473        6.7117442821        2.0173142260
  C         6.5081491670        5.4020206348        2.4458574903
  N        11.6209845338       -0.5550163736        1.7687504554
  C        12.3028390964       -0.2638236967       -0.4293061132
  C        12.5686095607        1.9433547529       -1.4065160473
  H        12.1861216281        3.6208221293       -0.1291231565
  H        12.5124972572        2.1291891361       18.5366483758
  H        12.5474144567        3.2539841089       17.2852617375
  H        13.9894874466        2.9896197430       18.0168619068
  S         6.1856198043        6.1689203245       18.1019776098
  C         6.2504702129        8.8741980582       18.7241895940
  H        15.2505495185        4.9527042461        6.9358627935
  H        15.9743868303        4.6815523029        5.3331858584
  C        17.0102620678        6.1181844171        6.7419281394
  H         5.8932118163        5.2476422686        3.3190907082
  H         6.8541270758        4.4518724266        2.0241949074
  C         5.6832354600        6.0477033490        1.2724632496
  S        11.6430237821       -2.0684246030        1.1576871184
  N        12.2184487976       -1.6136786582       -0.3371960993
  C        12.6293058056        0.4422293534       -1.5821680763
  H        12.6077153488        2.5907118779       -2.2824017344
  C         5.8808773933        6.8471028901       19.6849149445
  N         5.9214410564        8.2008750411       19.8626507980
  O         6.4823874588       10.1126879603       18.5667055974
  H        17.4333995801        6.8153587456        6.0415380306
  H        16.5758339286        6.7012755044        7.5580516911
  C        18.0341138526        5.1638363741        7.3641216304
  H         6.3429311302        6.2760501646        0.4156728142
  H         4.8906616415        5.3673817503        1.0505253054
  C         5.0005660938        7.3233648700        1.7092973561
  C        12.7613548436       -0.3686036928       -2.7581209129
  S         5.4743649909        5.7797647296       21.0563148795
  C         5.9018113019        8.9248455336       21.1143908843
  H        17.6863040267        4.7579270740        8.3022030485
  H        18.2388085364        4.3687532571        6.6195450780
  C        19.3173578927        5.9621819013        7.6005105590
  H         5.2968990230        7.7827685661        2.6862432427
  H         4.0036358909        7.0083523721        1.9926168938
  C         5.1496417324        8.3490812773        0.5310190844
  H        12.4207461862       -1.3701734629       -2.6770831254
  C        13.2880799282       -0.1339318866       -3.9780955948
  H         5.1489014192        8.5931371014       21.8169002208
  H         5.7172145894        9.9991057011       20.9149031247
  C         7.2754297198        8.8598537589       21.7371558191
  H        19.8904503953        5.4779590329        8.3998979552
  H        19.0589619855        6.8700563744        8.1487624357
  C        20.0811158005        6.2456790424        6.2887807455
  H         6.1413944318        8.9458746630        0.5896521388
  H         5.0338721440        7.8077094240       -0.4220245802
  C         4.0224944758        9.2985795646        0.5658071376
  S        14.1263157392        1.3228657816       -4.4047537527
  C        13.3316205356       -1.2338373375       -4.9787155805
  H         7.3845442082        7.8387245045       22.0990170399
  H         7.2664003134        9.4020308239       22.7108261636
  H         8.2026592138        9.1072166109       21.1443488603
  H        19.6249453270        7.0234835411        5.5396815742
  H        21.0445630668        6.5935367841        6.5188865668
  H        20.3069589383        5.3471493109        5.8096052554
  H         3.7437576386        9.7125459458        1.4720044139
  H         4.3947769608       10.0626260742       -0.0994005872
  H         3.2045133938        8.8247132729        0.0282205944
  C        14.3190229081        0.5345111414       -5.9206795962
  N        13.9843738712       -0.7279055771       -6.0273569295
  O        12.9836742506       -2.3883198302       -4.7851706419
  S        14.8574241524        1.3368351807       -7.3525909472
  C        14.2664697025       -1.6255191374       -7.1249407768
  H        14.4029355922       -2.6248285871       -6.6390509451
  H        15.2615141076       -1.4956804360       -7.5645681310
  C        13.2102254096       -1.4702572074       -8.1469013144
  H        13.0313451065       -2.3981371762       -8.7298307267
  H        13.5078190870       -0.7229474518       -8.8716209384
  H        12.3259848480       -1.0337846169       -7.7132458990
