352
 i =    10400, time =     5200.000, E =       139.6513502629
  H        10.5115627527        4.2379319469       32.3575981621
  C        10.3881595085        5.3132894924       32.3815011189
  H         9.2730163860        5.7210723869       32.2468378390
  C        11.0654102448        6.0119017553       31.2244275230
  C        10.8531905442        5.7117051196       33.7583832648
  C        10.6772601406        5.4494560267       29.8613823833
  H        10.7868279212        7.0851563259       31.4802917211
  H        12.1432274134        5.8724297282       31.3168675736
  H         9.9845127006        5.9823623481       34.3535777787
  H        11.1719977244        4.7154990221       34.1911573760
  H        11.5904987282        6.4998111523       33.8825234230
  C        10.7897045357        6.4227708552       28.6574661659
  H         9.6202591827        5.1641203655       30.0181192298
  H        11.2870808653        4.5151053658       29.8659300159
  C        11.0473710429        5.7483890175       27.3600465141
  H         9.9252233356        7.0930352268       28.4851745057
  H        11.6205128168        7.1425640387       28.7554318885
  C         9.7314093102        5.2130248174       26.7638070723
  H        11.6986082503        4.9234408159       27.6271251375
  H        11.6303852215        6.3425698826       26.6650634234
  C         8.8050657387        6.2546768136       26.2792745719
  H         9.7725573496        4.3121606750       26.1274558445
  H         9.1947989476        4.9470593225       27.6531994083
  C         7.5702634629        5.6104863065       25.5776939619
  H         8.4069778512        6.9949664611       27.0107904767
  H         9.2185285128        6.8873998424       25.4831141468
  C         7.0395897821        4.2899758132       26.2291955054
  C         8.0390087625        4.8479336432       24.3491891716
  C         6.3177558034        6.5005821671       25.2119911259
  C         7.2731900457        3.1626713362       25.4410492626
  C         6.4624689610        3.9267728124       27.4137530976
  C         7.8445953108        3.5168296093       24.2719660017
  C         8.4258409248        5.3407955256       23.1032069524
  H         6.4203800211        7.3393949213       24.4512802056
  H         6.1281709879        6.9699690655       26.1581872301
  C         4.9418719114        5.7824644585       24.8630596617
  S         6.7315221975        1.7316560092       26.1069643024
  C         6.2681621408        2.5213805841       27.5510299919
  H         6.2619568483        4.6907341658       28.1308635849
  C         8.0756850361        2.7805781492       23.1212753797
  H         8.4902477652        6.3959099391       22.8962030175
  C         8.7270970868        4.6508538195       21.9831649203
  H         5.0827495968        5.1983878041       23.9847797104
  H         4.7190777077        5.1607350333       25.7387601244
  C         3.7640403824        6.5495642765       24.5357668066
  C         5.6852626973        1.7089639268       28.6606404574
  C         8.5576029973        3.3002950614       21.8514470858
  H         7.8904365656        1.7163498946       23.2260731468
  C         9.0367785618        5.0150482153       20.6801545873
  H         3.1306616243        5.8775148412       23.9382161003
  H         4.1001613889        7.3863293678       23.9993035392
  C         3.0232275890        6.9930794793       25.8073962660
  C         5.6360041196        0.2929165332       28.7803971161
  C         5.2062981473        2.4676987066       29.8374198450
  C         8.8620020519        2.6088682865       20.6189199140
  C         9.0820967343        3.9165657853       19.8494018745
  S         9.3475609108        6.4693890086       19.8476981211
  H         2.3826926215        7.9795622819       25.6982912884
  H         3.8151813826        7.2520040773       26.4182978047
  C         2.2736945985        5.8718469365       26.5253868566
  N         6.1906758276       -0.6022122699       27.7894012774
  C         5.3428427168       -0.3913433448       29.9179571076
  C         4.7986477884        1.7879804904       30.9730428168
  H         5.2540457910        3.5916355448       29.8232989544
  C         7.5664387788        1.8338183934       20.1798352231
  C        10.1869083202        1.7734168578       20.5541813840
  C         9.2200529261        4.2725087693       18.5257551937
  C         9.3970981028        5.5914813580       18.3296624252
  H         1.5873875824        5.4925672774       25.7586214662
  H         3.0497138148        5.1476441515       26.8165858198
  C         1.3282427329        6.2805584094       27.7805928512
  S         6.2860203318       -2.1094471710       28.4496358842
  N         5.5262957104       -1.7789310096       29.8206465203
  C         4.9763716618        0.3216911746       31.1169232089
  H         4.4557589947        2.3991572923       31.7666434831
  H         7.0456048602        1.1788711621       20.9288431738
  H         7.8590985730        1.0474414811       19.5120369140
  C         6.4351475198        2.6441787873       19.6068483780
  H        10.3073731650        1.3949239906       19.5611764286
  H        10.0069291323        0.8588897063       21.1650744705
  C        11.5139344336        2.4743204233       20.8248410942
  H         9.2718083135        3.4367516961       17.8996440842
  C         9.8230335975        6.3777717667       17.0939134777
  H         0.3943062168        6.6196774487       27.4659020359
  H         1.9246357439        7.1784629762       28.2352877319
  C         1.2498940194        5.2641915223       28.9252782574
  C         4.7039195664       -0.3702484093       32.2808373985
  H         6.6641417300        3.2069599359       18.6881922021
  H         6.0625457403        3.4058903342       20.3036497567
  C         5.1647283139        1.8551841424       19.1763789150
  H        11.5074846153        2.9139362463       21.8067010849
  H        11.8134095478        3.2026002688       20.1284743773
  C        12.6471868238        1.4311811743       20.9626545652
  C        10.0115635110        7.7324394679       16.9995924678
  C         9.9561925266        5.6104260281       15.8154647779
  H         0.4638151100        4.6016725216       28.6721180804
  H         2.2668122212        4.9742324194       29.3096621048
  C         0.5352760728        6.0457989750       30.0703258486
  H         4.5112256600       -1.4627902830       32.1622481676
  C         4.4911306866       -0.0061968411       33.5933049279
  H         4.6943315698        1.7167075888       20.1436226153
  H         5.4331547341        0.9188371542       18.7272297444
  C         4.2027438991        2.6769204247       18.2789538526
  H        12.5008142425        0.7911708778       21.8451905993
  H        12.5578162507        0.8562564445       20.0489200679
  C        13.9366756868        2.1554212977       21.1129740639
  N         9.7971801901        8.6739836145       18.0718850327
  C        10.3183835001        8.3842935030       15.8196951248
  C        10.1873884659        6.1823278484       14.6523342848
  H         9.7359887688        4.4945015108       15.8134190054
  H        -0.2193135168        5.5532421337       30.6780423745
  H         1.1650848802        6.3151538714       30.8523946234
  H        -0.0761436420        6.8218820286       29.7715139697
  S         4.3156944447        1.5673270867       34.2678438824
  C         4.4856301103       -1.1739816585       34.5556991112
  H         3.9669886846        3.6102903833       18.9839198860
  H         4.6640868296        3.1275684277       17.4428555666
  C         2.9317207245        1.8959676083       17.9629148574
  H        13.8668612399        2.9489367957       20.4015205289
  H        14.7347331213        1.5303558900       20.6798424438
  C        14.3773245690        2.6936040743       22.5032634538
  S         9.9854593360       10.1548091040       17.4129380128
  N        10.3877858083        9.7841654241       15.9164231081
  C        10.4213015371        7.6984668123       14.5535204605
  H        10.2745156563        5.5405144074       13.7349977795
  C         4.0891583576        0.6503038312       35.8449052775
  N         4.1068618253       -0.6696835009       35.7862212704
  O         4.7150914179       -2.3869070384       34.2039676177
  H         2.2444949953        2.6423385939       17.6647351421
  H         2.4310928874        1.6062619757       18.9047594806
  C         3.1214255977        0.7010179895       16.8701571830
  H        13.9233987869        3.6442011403       22.7770720245
  H        14.2845975502        2.0329380211       23.4740249242
  C        15.8423663144        3.0363705212       22.4539579834
  C        10.5999967571        8.5610958782       13.4199724581
  S         3.5992304832        1.4073895368       37.3203198422
  C         3.9960566772       -1.5835645606       36.9358269439
  H         2.4270520186        0.6104300409       16.0932862530
  H         4.0430259191        0.9106959419       16.3295796397
  C         3.3396355422       -0.6747750556       17.4330440458
  H        16.1744767747        3.7986732053       23.1522389193
  H        15.9454152967        3.4412031056       21.4380793939
  C        16.7837602964        1.7817717499       22.6100145815
  H        10.2160079033        9.5526505685       13.3802582432
  C        11.0350042317        8.1954986210       12.1422165476
  H         3.1380912204       -1.4487312973       37.5230567042
  H         3.9735484425       -2.6641447399       36.6100091595
  C         5.2061347234       -1.4112646710       37.7737777599
  H         3.4814168465       -0.6353494591       18.4941993166
  H         4.2326813182       -1.0242655149       16.9587568492
  C         2.0358639481       -1.5657869934       17.2735379114
  H        16.4250998732        1.2473702728       23.5329657068
  H        16.7776088466        1.2265734511       21.6971281240
  C        18.2268302008        2.2655519679       22.8293148954
  S        11.5829345223        6.7118161476       11.6817542090
  C        11.1941225514        9.2950906211       11.2036102481
  H         4.9734910803       -0.8663484686       38.7287739614
  H         5.6008346092       -2.4052360958       38.0505396797
  H         6.0680675234       -0.8798296741       37.3117516365
  H         1.9707711447       -2.2309325327       18.0827919278
  H         1.9142747271       -2.1133669535       16.3368582226
  H         1.1819738495       -0.9732974969       17.2408305752
  H        18.2757940952        2.5578111817       23.8589375446
  H        18.4430786754        3.2040698351       22.2644141455
  H        18.8923854779        1.4906857840       22.4651006567
  C        11.9013039624        7.4130675780       10.1051246286
  N        11.7121367870        8.7630005304       10.0815074629
  O        10.8727505605       10.4768126429       11.4872591750
  S        12.4110658816        6.5559853576        8.5471964618
  C        11.9486078795        9.5297739079        8.9095034624
  H        12.3794781395       10.5379085095        9.1097922399
  H        12.7500690178        9.2293475541        8.2762501457
  C        10.6573652803        9.6630547392        8.1363844282
  H        10.4341347577       10.7094158310        7.9028332252
  H        10.6330836370        9.1189658670        7.2499830664
  H         9.9053979325        9.1946091749        8.7357643272
  H         4.3729799659        2.0584957506       12.4955555742
  C         3.6957117681        2.9725091419       12.5215285057
  H         4.3840264493        3.7968388039       12.5625053155
  C         2.8448714829        2.9444890690       11.2748516023
  C         2.8928773821        2.9310230962       13.7796199536
  C         3.5730747293        2.8469788974        9.9821808942
  H         2.1169990766        3.7977258427       11.1649877365
  H         2.3110295183        2.0794454211       11.4820093920
  H         2.5031648757        1.8833128061       13.9364145452
  H         1.9681546530        3.6044045071       13.7021080810
  H         3.3846115095        3.0798292906       14.6947113950
  C         4.4604910317        1.6168156047        9.8347639307
  H         2.9594925421        2.9125660776        9.0638919787
  H         4.1563882545        3.8047556021        9.9559573214
  C         5.0451587606        1.4796698897        8.4442256708
  H         3.9344876897        0.7001981024       10.1213010940
  H         5.3327200533        1.6969150060       10.4529318245
  C         6.2071045968        2.4836322728        8.1796536436
  H         4.1842717217        1.7437291910        7.7431269058
  H         5.4148143866        0.4812579035        8.2199029229
  C         7.5318334328        1.9705144254        8.7765025924
  H         6.3672063937        2.6506137903        7.1194532147
  H         6.0679351271        3.4709726294        8.5391994527
  C         8.6994681223        2.9649343648        8.9674151928
  H         7.9094443172        1.1765530686        8.2205084966
  H         7.3796483999        1.5965723892        9.7224440332
  C         8.2942385038        4.2698195287        9.6637163394
  C         9.1926550949        3.7455413349        7.7634667966
  C         9.8022021828        2.2046821185        9.8106554992
  C         8.5879226970        5.4149632605        8.9242376614
  C         7.6261166791        4.6104513142       10.8413889849
  C         9.2236594270        5.1180246973        7.7918465498
  C         9.8046049874        3.1580888111        6.6711344465
  H         9.3096602002        2.0280665351       10.7802236450
  H        10.1822894545        1.2305117459        9.4053170730
  C        11.1838427493        3.0338942692       10.0029405215
  S         8.3287722135        6.8764300635        9.8036554652
  C         7.5770401700        5.9666899865       11.1103235589
  H         7.3630306051        3.8579506343       11.5655757825
  C         9.6044374358        5.7006916065        6.6037567852
  H         9.5815408327        2.0873118667        6.6285491452
  C        10.1851185616        3.8453304470        5.5745283463
  H        11.0701224614        4.0979851409        9.9507770029
  H        11.7533455878        2.7698265689        9.0894158476
  C        12.0263025654        2.5648777866       11.1757996329
  C         7.1660760115        6.6257828035       12.4323266868
  C        10.1798859863        5.1720751997        5.4435567544
  H         9.4650371996        6.7485952822        6.5407680770
  C        10.6175894134        3.4145446149        4.3605505930
  H        13.0435110039        3.0055037285       11.1728444833
  H        12.3183817907        1.4946137226       11.1515654539
  C        11.3440802725        2.7036493599       12.5215386705
  C         7.4163798702        7.9933078466       12.7506523840
  C         6.8526076836        5.7530721097       13.5850969390
  C        10.5958253109        5.8838366039        4.2288645010
  C        10.8883252804        4.4759707121        3.5417673118
  S        11.0018336101        1.8849090569        3.5913920456
  H        10.8258830210        3.6761643073       12.6921124851
  H        10.5897881195        1.8918767501       12.5855139213
  C        12.4134421434        2.3627589483       13.4871942367
  N         7.8228957609        8.9718678373       11.8060264635
  C         7.1630301322        8.5737084189       13.9677198941
  C         6.9135015456        6.3092899980       14.8629996120
  H         6.8603354281        4.7203257719       13.4407003371
  C        11.9051247731        6.6743984636        4.4549454911
  C         9.4871992774        6.7010508757        3.4650518974
  C        11.2774365984        4.0604214926        2.2461751738
  C        11.3256686004        2.6725559645        2.1545284281
  H        13.2555989855        2.9909748630       13.2752556845
  H        12.7304696142        1.3428270357       13.4181875415
  C        11.9750771190        2.7179340443       14.9160677231
  S         7.6492857468       10.4154362668       12.4496886828
  N         7.2703299765        9.9440118343       13.9496807991
  C         6.9165152759        7.7858477384       15.1029595151
  H         6.9348954330        5.4924346850       15.6484978327
  H        11.6765765018        7.3534862371        5.2550933567
  H        12.1989958307        7.2969572568        3.6057497442
  C        13.1191004267        5.8161536075        4.8441482143
  H         9.1865437636        7.5934316791        3.9543365398
  H         9.9827400195        7.1274293100        2.5092518080
  C         8.2106387981        5.8711845157        3.1995860775
  H        11.5048084848        4.8047022789        1.4350742209
  C        11.6411568527        1.8897932863        0.9026018408
  H        11.9578006742        3.7541283998       14.9636314276
  H        10.9770648704        2.3870213081       15.0562029491
  C        12.8201807194        2.0322674140       15.9394313122
  C         6.8376884540        8.3571228944       16.4095250056
  H        12.9385266904        5.2656956071        5.7662169847
  H        13.4035355439        5.0548906626        4.1598869551
  C        14.2577790167        6.7843089869        5.2016113633
  H         7.8456991459        5.3602101949        4.0026714721
  H         8.4209884905        5.0850059151        2.4633288976
  C         7.0631509349        6.8196338201        2.7230376348
  C        11.7017769916        0.5103923315        0.7301234763
  C        11.9480432999        2.7238843848       -0.2586059307
  H        13.8312321720        2.2244169518       15.5669283515
  H        12.6179103897        1.0163766081       15.9192196235
  C        12.4973856433        2.5128129838       17.3355013806
  H         6.8394953181        9.4384488378       16.2779993521
  C         6.4184242769        7.9698322344       17.6488786834
  H        14.1237436634        7.0362766777        6.2432085615
  H        14.3091069245        7.5950589542        4.4725887935
  C        15.6249300972        6.0544056497        5.3363960934
  H         6.6433712520        7.4313812101        3.5265155460
  H         7.5589628263        7.1974059175        1.8823886308
  C         5.8547577328        6.1950550513        2.0579313556
  N        11.6684923704       -0.4485324667        1.7879261318
  C        12.1742647951       -0.0748608868       -0.3977283632
  C        12.2554908646        2.1608809760       -1.4766791700
  H        11.7584849351        3.7645944460       -0.2430460527
  H        13.3427145795        2.0922431302       18.0020321402
  H        11.6457133595        1.9733906418       17.6851798682
  H        12.3827779572        3.5473963364       17.4271750274
  S         6.1254961218        6.3987990293       18.1982115092
  C         6.4673910119        9.0680573673       18.6546705764
  H        15.5607047378        4.9515839657        5.0069642163
  H        16.3190526319        6.4934510606        4.6099792190
  C        16.0819012013        6.0790717763        6.7707568909
  H         5.2082930861        5.8829209500        2.8317053905
  H         6.2063375076        5.4477604414        1.4036691442
  C         5.1317765689        7.3171737345        1.2798643774
  S        11.8705039026       -1.9625013122        1.1609808206
  N        12.1802777017       -1.4910499978       -0.3487999187
  C        12.4200018687        0.6359276260       -1.5816024864
  H        12.2375646863        2.8526825527       -2.3497911729
  C         5.8573470579        7.1945635284       19.7897235960
  N         6.1411344134        8.5403329987       19.8601990851
  O         6.9325660110       10.1934878330       18.3979043903
  H        16.2822918901        7.1210213213        6.9044979592
  H        15.2891915110        5.7059368612        7.4229127476
  C        17.3407236592        5.2335343362        7.1191912509
  H         5.7562201144        7.8794270348        0.5196411757
  H         4.2101972996        6.8591690628        0.8996341442
  C         4.4653352514        8.2977525692        2.2476184195
  C        12.6355639251       -0.1308757304       -2.7849051718
  S         5.4585885265        6.3139849125       21.2753141279
  C         6.0848005962        9.3136422348       21.0821583456
  H        17.5674171329        5.2091960418        8.2224072405
  H        17.1834720802        4.1577441950        6.8296292753
  C        18.5730319590        5.7935757675        6.3988429595
  H         5.2445709698        8.7775115607        2.9609886897
  H         3.7248055939        7.7748612255        2.8204068381
  C         3.5745058721        9.3586069018        1.5003926269
  H        12.6810879397       -1.1901370373       -2.6354537740
  C        13.1649203263        0.2636577176       -4.0106754014
  H         5.3105519612        9.0996299543       21.7068285856
  H         5.7755243326       10.4062438000       20.9455432117
  C         7.3943666561        9.2450424294       21.9354158105
  H        18.2943952154        6.8179451833        6.1006414422
  H        18.6796908534        5.2306808309        5.4436776474
  C        19.9750726154        5.6878133098        7.1198004837
  H         2.7112321269        8.8933189866        0.9892477696
  H         3.0092405801        9.8696314725        2.2325978790
  C         4.4362708104       10.3718311332        0.6881456756
  S        13.4936167614        1.8390530019       -4.5193120008
  C        13.3691768518       -0.7768068172       -5.0069748920
  H         7.2195100796        9.0531154629       22.9608207608
  H         8.0952670406       10.0950548051       21.8861251558
  H         7.9391090380        8.3307984936       21.6037140329
  H        20.3745983279        6.6994296660        7.2313907514
  H        19.7242757247        5.3208829472        8.1131869164
  H        20.6810967709        5.0758424697        6.5621725071
  H         3.9130533732       11.2793993919        0.5297056648
  H         5.4640761818       10.4623180696        1.0012717939
  H         4.4807129735        9.9061298239       -0.3040885247
  C        14.0144116630        1.0640254796       -6.0778512644
  N        13.8490489783       -0.2382271052       -6.1382489579
  O        13.0126364454       -2.0071684348       -4.9009258977
  S        14.4773677743        1.9892688201       -7.5467637114
  C        13.9178040880       -0.9700323465       -7.3596967016
  H        14.1303779552       -1.9967257041       -7.2020321527
  H        14.7517632868       -0.7323666304       -7.9834998490
  C        12.6508166865       -0.9640647561       -8.1146441234
  H        12.7736058033       -1.3917709057       -9.1255460142
  H        12.3339763111        0.1053999063       -8.2622007130
  H        11.9194373769       -1.4867529437       -7.5695864173
