352
 i =    17200, time =     8600.000, E =       106.2616406853
  H         9.7453572179        6.0919495990       31.6128551157
  C        10.8138582427        6.0987339356       31.9433401170
  H        10.8480907261        7.0958383251       32.3708826794
  C        11.7501420353        5.8824419356       30.8021785273
  C        10.8894930426        5.3625713107       33.2393879797
  C        11.1164446796        5.1500617995       29.6757171588
  H        11.9849709281        6.9062603283       30.4306235603
  H        12.6192418795        5.3468571862       31.1827545365
  H        11.7832991069        4.8152045250       33.4762304227
  H        10.7876575388        6.1289476515       33.9874340804
  H        10.1125812856        4.6149987084       33.2648866795
  C        10.4180163035        6.0432817682       28.5691036896
  H        10.2683688970        4.5160067156       29.9894893621
  H        11.9582236423        4.5793599916       29.3096013212
  C        10.7935543234        5.5773855906       27.1667531283
  H         9.3845507983        5.8787841182       28.6212934420
  H        10.4541509484        7.1600067524       28.8009066802
  C         9.7806529490        4.8229978338       26.3910915177
  H        11.6488554429        4.9243516349       27.2369772019
  H        10.9519010363        6.4663206513       26.5915725467
  C         8.6168526173        5.7695245956       25.9230746815
  H        10.1312178905        4.4209902833       25.5053804911
  H         9.3436032114        3.9884473855       26.9634382571
  C         7.4701633111        5.0817131601       25.1744345812
  H         8.1973133621        6.3186301940       26.7391601800
  H         9.0169232882        6.4811991138       25.2447649423
  C         7.1703758715        3.6883093565       25.8513731227
  C         7.9135393796        4.4178308282       23.9473377760
  C         6.2043530155        5.8804210913       25.1751098375
  C         7.4767992272        2.6106963840       25.0196832733
  C         6.6595341409        3.2309895769       27.0464828944
  C         7.8460899183        3.0701626640       23.7890223317
  C         8.4597507487        5.0084758290       22.8126643103
  H         6.4276107423        6.8388641299       24.6742985588
  H         5.8979964318        5.9707785124       26.1365190117
  C         4.9731972127        5.1819906479       24.4516909707
  S         7.0037864227        1.1455078652       25.6369126693
  C         6.5495809660        1.9123008671       27.0792311988
  H         6.4807383165        3.9817674153       27.7466089369
  C         8.1856880326        2.4109653201       22.6520208299
  H         8.5377562892        6.0950048431       22.9614177218
  C         8.8300255232        4.3578128402       21.6371939660
  H         5.2995670688        4.8490695646       23.4735994986
  H         4.6958783640        4.3006046080       25.0214668323
  C         3.7364420965        6.0277511950       24.1829692411
  C         6.0165943271        1.1462558585       28.2871682746
  C         8.7230117750        3.0333517652       21.4770978353
  H         8.2218567461        1.3917531825       22.5536023123
  C         9.1690884614        4.7737069207       20.3762948416
  H         3.0623137004        5.4107278293       23.6517713103
  H         3.8165578344        6.9092654486       23.6126412490
  C         3.1024747355        6.4674935684       25.4710563269
  C         5.9684232149       -0.2337166220       28.5410933026
  C         5.6082289981        1.9720874929       29.4482473207
  C         9.0288676565        2.4045750388       20.2084296748
  C         9.2883650341        3.7143439298       19.4438180551
  S         9.4306510903        6.3042695001       19.6230059298
  H         2.3719898241        7.2499616953       25.1743845450
  H         3.8162878934        6.9897445169       26.1383540178
  C         2.4301039923        5.3772123978       26.2546694623
  N         6.2431215030       -1.1777489577       27.5711911242
  C         5.5675458783       -0.8243759118       29.7211703027
  C         5.2537610335        1.4419429206       30.6340111028
  H         5.5076873692        3.0283322330       29.3618611794
  C         7.7696001301        1.7847973807       19.5473675643
  C        10.2340237137        1.4486123888       20.3395848624
  C         9.7544601094        4.1478037101       18.1851205130
  C         9.6616938376        5.5033010241       18.0868216799
  H         1.7854384248        4.8649945696       25.6511454503
  H         3.1322781568        4.6432618819       26.7167818323
  C         1.4497578622        5.9628685508       27.2956297050
  S         6.1521380712       -2.6639134558       28.1992847979
  N         5.5631346575       -2.2594093617       29.6474575555
  C         5.3060924580       -0.0504023144       30.8462253242
  H         4.9697852649        2.0974829270       31.4103029953
  H         7.6727756930        0.7714171432       19.7969361140
  H         7.9655549353        1.6714803730       18.4404850624
  C         6.4826422043        2.5178424463       19.5365227873
  H        10.4797738019        1.0513863068       19.2663146097
  H        10.0327637912        0.6369507593       21.0733638376
  C        11.4580147624        2.1257264176       20.8705049145
  H        10.0710173762        3.4227611809       17.4591752273
  C        10.0442656904        6.2844425370       16.8754298754
  H         0.6050919091        6.3913639835       26.7448606579
  H         2.0973266196        6.7746418062       27.7150115050
  C         1.0094155155        5.0450167329       28.3594231113
  C         5.0513566807       -0.8001980911       32.1107965275
  H         6.7301995829        3.4477121824       18.9621111209
  H         6.1573866906        2.8787041588       20.5073285408
  C         5.5159560773        1.5174814136       18.9197062338
  H        11.2253254029        2.6199158644       21.7902536313
  H        11.7503629234        2.8972935976       20.1809342987
  C        12.6175197178        1.1885451561       21.0562589067
  C        10.2062059534        7.6968439559       16.7958524345
  C        10.1678214693        5.5070459913       15.5899042472
  H        -0.0432517938        4.9626474367       28.4830232958
  H         1.3355907957        4.0027331237       28.2031471128
  C         1.4812679259        5.3088673594       29.7402976787
  H         5.3660814994       -1.8622915379       32.1244436108
  C         4.7830980201       -0.3142013905       33.3712772813
  H         5.3998617933        0.6779747378       19.6127421393
  H         5.8288481683        1.0850149419       17.9909156632
  C         4.1619278326        2.2007200688       18.5787354382
  H        12.3597529484        0.3585828179       21.7424378610
  H        12.8453049132        0.6075468544       20.1212872639
  C        13.9183896905        1.9036382566       21.4673310421
  N        10.0453972465        8.5965919784       17.8037167336
  C        10.4304447222        8.3152619570       15.5919426685
  C        10.5503994100        6.1889877279       14.4301571488
  H        10.2800410381        4.4417124480       15.5922908016
  H         0.9259988668        4.6580488560       30.5078678903
  H         2.5722514127        5.3151626667       29.8707192526
  H         1.3573251878        6.3670813188       30.0413291482
  S         4.3743647198        1.3019462858       33.8182744998
  C         4.8041294731       -1.2627392816       34.5232110567
  H         4.1204654924        3.0893548694       19.2109053714
  H         4.2075538152        2.6029542183       17.6110301375
  C         2.8265128746        1.4336248227       18.7818838292
  H        14.0198338422        2.8691102696       20.9288577050
  H        14.7894137834        1.3158072424       21.2029642452
  C        14.0245054748        2.3193297535       22.9683418816
  S        10.1091877103       10.1040018323       17.1490564322
  N        10.5775452405        9.7411262434       15.6599562406
  C        10.6469271967        7.6206741536       14.3679348166
  H        10.7689904068        5.6408158588       13.5786672375
  C         4.2323314110        0.7048610504       35.5239393871
  N         4.4655871264       -0.5910867956       35.6674312885
  O         5.0805225869       -2.4385020440       34.3831828552
  H         1.8463070310        1.9068657706       18.5971724776
  H         2.6383625312        1.0972021119       19.8194676567
  C         2.7503855014        0.1885367535       17.9104706444
  H        13.1652157297        2.9997120294       23.0968884306
  H        13.9420891527        1.5402883039       23.6944938175
  C        15.3205004434        3.0861618444       23.2433641883
  C        10.9714662446        8.4311290903       13.2527434823
  S         4.0001954980        1.6567546794       37.0052091746
  C         4.5013032143       -1.3599208093       36.9485524030
  H         2.3067742791        0.4671887551       17.0050441673
  H         3.7431528978       -0.2208254545       17.8090885095
  C         1.9264725736       -0.8166103542       18.6880630165
  H        15.0646840698        3.5604727183       24.1142138232
  H        15.5652015640        3.8747687193       22.5216511196
  C        16.5493272601        2.2714157766       23.4858837671
  H        10.6664364725        9.5331021478       13.3534261476
  C        11.2983893413        8.0877219905       11.9880354439
  H         4.0620083182       -0.7735177541       37.7612605790
  H         3.9524472379       -2.3053878452       36.9207051504
  C         5.9080821550       -1.6707085404       37.3434723880
  H         0.9581310229       -0.2631195613       18.9701643940
  H         2.5429435811       -1.0199186286       19.5868992072
  C         1.5792958692       -2.1131336149       17.8944491086
  H        16.9234206038        2.7106511151       24.4325732896
  H        16.5210621802        1.2351799253       23.6195069294
  C        17.5864741679        2.5316380760       22.4609227046
  S        11.6611684884        6.4087766077       11.3334165525
  C        11.5528044328        9.1433753373       10.9849753148
  H         5.9235069151       -1.9968850426       38.3593500359
  H         6.4448333598       -2.4024803910       36.7321536112
  H         6.4810717740       -0.7737782451       37.4346503300
  H         0.8464148351       -2.7273485937       18.4142644455
  H         2.4307325632       -2.6883727382       17.5726203622
  H         1.0713318136       -1.9465179519       16.8969617190
  H        18.5853066176        2.1809045760       22.7523736328
  H        17.8355984882        3.5828882378       22.2125546123
  H        17.2809559849        2.1436283635       21.4497170464
  C        12.1276886365        7.2561230246        9.8234148664
  N        12.0140974178        8.5877001016        9.8378307239
  O        11.2004447594       10.3203169785       11.1539136769
  S        12.4700701757        6.4571684336        8.3103954609
  C        12.2350775757        9.3983935218        8.6812335199
  H        12.7315529413       10.3599768181        8.9316333680
  H        12.8105295387        8.8582468474        7.9399839450
  C        10.9114609517        9.7154357078        7.9729505962
  H        10.3465393886       10.3363591415        8.6025960628
  H        10.9680640086       10.0949514142        7.0311826633
  H        10.3470397219        8.8078971277        7.8232741117
  H         4.7704077627        0.6659158681       12.1198982810
  C         4.4843933657        1.6971409019       12.3400286636
  H         5.4476461662        2.3270346418       12.2571861901
  C         3.3215387446        2.0009328526       11.4256042318
  C         4.0376351929        1.7223610359       13.8571885943
  C         3.6991626723        2.4065393658        9.9839118046
  H         2.6203232902        2.7827189816       11.8257036926
  H         2.6600081347        1.0950216306       11.3154532864
  H         3.7006660126        0.7629645181       14.1366149030
  H         3.1736258736        2.4631418813       14.0842467970
  H         4.8817394997        1.8602084228       14.5226913295
  C         4.5410183484        1.2829841463        9.3387490340
  H         2.7804403716        2.6290204314        9.4268884058
  H         4.3504244616        3.3246452406        9.9734676114
  C         5.2198965959        1.7718096522        8.0392901768
  H         3.7600904964        0.4637565794        9.2056592553
  H         5.2543874010        0.9162538097       10.0570136566
  C         6.4020175263        2.6726315708        8.3967119956
  H         4.5054832780        2.3729305399        7.4825202225
  H         5.5881086703        1.0064352725        7.4234418403
  C         7.6405390991        1.9337126859        8.8938206163
  H         6.6501165145        3.3684317253        7.5203978124
  H         6.0986570701        3.4458427435        9.1405451377
  C         8.9728150549        2.6378882054        8.9770155399
  H         7.9345621750        1.0925695013        8.2199938389
  H         7.4307964427        1.6019751841        9.9071122449
  C         8.6273040495        3.9765666419        9.6627430704
  C         9.4147062806        3.4164416582        7.7401717070
  C        10.0623323355        1.8400951395        9.7014236190
  C         8.8367939490        5.1151347716        8.8816424387
  C         8.1732607895        4.3089746158       10.9215635937
  C         9.2947374146        4.7597061357        7.6205991513
  C         9.9450831418        2.7592663299        6.6731202693
  H         9.5512262704        1.5108495033       10.5953196664
  H        10.3873998049        0.9659399389        9.2142408174
  C        11.2040928440        2.7129714831       10.1811923896
  S         8.4751588388        6.5992088358        9.7787841330
  C         8.0267957325        5.6770590465       11.1704609296
  H         8.0081097449        3.4426816159       11.5708313158
  C         9.7022196211        5.4176317085        6.4946337146
  H        10.0386547803        1.6884039642        6.6001970052
  C        10.3188387927        3.4345795651        5.5345183066
  H        10.8992912770        3.6470099051       10.6954136202
  H        11.7136756645        3.0547302170        9.2498301082
  C        12.2884167236        1.9673954674       10.9117985318
  C         7.5958109880        6.3955287762       12.4552380021
  C        10.1448052022        4.7989401011        5.3355486463
  H         9.6558874855        6.5054152849        6.5262307150
  C        10.7394763375        3.0046042186        4.2729704395
  H        13.2215856465        2.4864624340       10.8979996268
  H        12.5014729649        1.0194651103       10.5177806639
  C        12.0716179736        1.7291679928       12.3453620270
  C         7.6094105397        7.8116438432       12.6269491446
  C         7.2786499485        5.5899431434       13.6112504212
  C        10.5411075236        5.4408901375        4.0164922373
  C        10.8695681569        4.0469422849        3.4025170500
  S        11.0770405101        1.4682545976        3.6265465519
  H        11.4159331796        2.5777841116       12.6950802343
  H        11.5716265393        0.7633457912       12.4012646333
  C        13.3946236766        1.6704006604       13.1052093749
  N         7.9619668122        8.7781943938       11.7260196255
  C         7.3864059125        8.3236554143       13.9308854724
  C         6.9095956929        6.1315692967       14.8726916268
  H         6.9841977926        4.5413868299       13.4836152214
  C        11.7953745342        6.2792642394        4.1655011835
  C         9.3220191021        6.2474816158        3.3676385547
  C        11.2616395065        3.6320543892        2.1386010516
  C        11.4270229959        2.2815521222        2.0643582344
  H        13.8459979466        2.6580751586       13.0954404850
  H        14.1480510098        1.0154609484       12.6190328338
  C        13.3813067301        1.0427959745       14.5178037145
  S         7.8387014780       10.2118892664       12.5215158329
  N         7.5895520610        9.7077872821       14.0414859288
  C         7.0300346871        7.5800068635       15.0929724397
  H         6.7046810504        5.4091142869       15.6384142785
  H        11.5243977234        7.0761536575        4.8614870119
  H        12.0306177974        6.7959231388        3.2121272261
  C        13.1296650587        5.6208322217        4.7160826532
  H         8.9936608519        7.0047403737        4.0198699203
  H         9.6873605654        6.8129364999        2.5005361276
  C         8.1594916976        5.4188929160        2.8966741414
  H        11.1847769424        4.2833614948        1.3148866900
  C        11.6400597840        1.5461730658        0.8324425467
  H        13.2426506049       -0.0248282635       14.4129690314
  H        14.3215199575        1.1882829570       14.9540072185
  C        12.3862667010        1.6456585858       15.3966077543
  C         6.9271189314        8.2286376154       16.3939062507
  H        12.9600431027        5.1326223846        5.6937922560
  H        13.4420140094        4.8354802362        4.0432388139
  C        14.2378668039        6.6779170535        4.6703813747
  H         7.7671675885        4.8221097644        3.6886325217
  H         8.2724334258        4.6985813439        2.1129118300
  C         7.1439095354        6.3731212907        2.4098361837
  C        11.6958338315        0.0970840488        0.7216133667
  C        11.7597717191        2.3275298749       -0.4034146918
  H        11.4976260268        1.0993946667       15.2062971224
  H        12.3129416439        2.7589795505       15.2179862139
  C        12.8396196368        1.4352932609       16.8527324675
  H         7.0886709105        9.3129290275       16.4369119916
  C         6.5426538806        7.7624156074       17.6439486194
  H        14.0455381759        7.4749798969        5.3984694765
  H        14.3723929833        7.0852613425        3.7268902226
  C        15.6313102805        6.0350754200        4.9325997853
  H         7.1835922525        7.3714034010        2.8995397816
  H         7.3128670732        6.6309404981        1.3541628542
  C         5.8730710018        5.7344884406        2.5993372513
  N        11.5469454174       -0.8415157567        1.8041316146
  C        11.8976531299       -0.5494004853       -0.4558900993
  C        11.9856838439        1.6584882086       -1.5893684740
  H        11.7633526812        3.3991872698       -0.3920323736
  H        13.5049880786        2.2281171432       17.1720332709
  H        13.4765039124        0.5439424855       16.9845870833
  H        11.9299553901        1.3815755802       17.4862889097
  S         6.1519861081        6.1501226807       18.0829837019
  C         6.4958379226        8.8036556027       18.6668386233
  H        15.7061855593        5.0795788222        4.3267516133
  H        16.3447226549        6.7157616244        4.4230380347
  C        15.9008311975        5.8804498849        6.3770895749
  H         5.6337733733        5.5673629885        3.5864674388
  H         5.9048273438        4.7623530270        2.1287681309
  C         4.7324737746        6.4937542518        1.9027864700
  S        11.5216967057       -2.3364282762        1.1936082060
  N        11.8137410078       -1.9489137114       -0.3461552784
  C        12.1489484656        0.1833395958       -1.6418230100
  H        12.2691965057        2.1775533595       -2.4325688401
  C         5.9184151810        6.8973424263       19.6730809244
  N         6.0547640041        8.2396895441       19.7458217295
  O         6.8256460844        9.9601948883       18.4900280977
  H        16.3014063632        6.7977390490        6.8471071474
  H        15.0362072910        5.4357953757        6.9712222452
  C        17.0953964167        4.9432694286        6.6635822308
  H         5.0375700738        6.7060068917        0.8953172560
  H         3.8861395806        5.9026992491        1.8934829931
  C         4.3727110382        7.8051698563        2.4716113050
  C        12.5088008496       -0.4899867097       -2.8354764910
  S         5.6826993035        5.9148100486       21.1656157412
  C         5.9157996063        8.9926682781       21.0088086283
  H        16.8258539408        4.5079426777        7.5787720881
  H        17.1809934097        4.0978780692        6.0307849320
  C        18.3929997412        5.6923855490        6.8555789995
  H         4.9954869863        7.9178337709        3.2692603374
  H         3.3958662868        7.7285621926        2.9108687054
  C         4.4115610241        9.0167920027        1.5901559924
  H        12.3377011364       -1.5595833918       -2.8472357364
  C        12.9493028611       -0.1231458804       -4.0466711950
  H         5.1669263022        8.5146791027       21.6122273290
  H         5.7246156493       10.0126224530       20.8321813002
  C         7.2512218594        9.0184090553       21.7614499991
  H        18.9443120105        5.2053259364        7.5948483183
  H        18.3243341077        6.6191615034        7.3521681563
  C        19.2694505597        5.6659510573        5.6345009268
  H         5.5014874400        9.2069040805        1.3411316451
  H         3.9847031241        8.6653049847        0.6707965581
  C         3.7556061225       10.2687781611        2.0096745880
  S        13.4433354423        1.4804336406       -4.5959924055
  C        13.1332326105       -1.1431869214       -5.0971962749
  H         8.0266543120        8.7929884709       21.1115290549
  H         7.2729961672        8.2776036850       22.5705689539
  H         7.5455495193       10.0596291162       22.0103771369
  H        19.8604775303        4.7566968709        5.5567108452
  H        18.7166579285        5.7326822130        4.6646153729
  H        20.0255925615        6.4893580284        5.5454242734
  H         2.6832284482        9.9971788174        1.9539527440
  H         4.0770655973       10.6006928253        2.9999199067
  H         4.0036913813       11.0172792188        1.3036439635
  C        13.7190781677        0.7835476337       -6.1344436689
  N        13.7106001573       -0.5731704758       -6.1526289883
  O        12.7958480055       -2.3049994542       -5.0549155614
  S        14.1703887588        1.6625083143       -7.5750904767
  C        13.7641584014       -1.3856413558       -7.3689310117
  H        13.9972022682       -2.4398133095       -7.1378573792
  H        14.4910807865       -1.1489067737       -8.1081090699
  C        12.4161578108       -1.3622880776       -8.0821491054
  H        11.4897250174       -1.2553964928       -7.4700226086
  H        12.2641044325       -2.2459299131       -8.6300123989
  H        12.4119401284       -0.6126455787       -8.9323584621
