352
 i =    84600, time =    42300.000, E =        98.3781113385
  H        11.7686229981        7.0387179396       32.9594969002
  C        11.7246395514        5.9148255034       32.8204236581
  H        12.6952408680        5.4271969743       32.3755385943
  C        10.6517492116        5.8069840564       31.7247351949
  C        11.3650622694        5.2664925396       34.1618864481
  C        11.1684680416        6.0784685885       30.3309658892
  H        10.3405294770        4.7523099994       31.5980093498
  H         9.8009261061        6.3791104989       32.0222036309
  H        10.3751503155        4.7792737697       34.0864853413
  H        12.0942279516        4.5600997178       34.4495680012
  H        11.2740681912        6.0881732348       34.8601577920
  C        10.1124248541        5.9757728358       29.1695644046
  H        11.9176752716        5.2950014509       30.0763809856
  H        11.6634738677        7.0610685084       30.1791151042
  C        10.9010688978        5.8427862492       27.7884038192
  H         9.5101106925        5.0863956796       29.3041164400
  H         9.4828149430        6.8917455096       29.1870904811
  C         9.9989906426        5.1545970553       26.7959481545
  H        11.8537577798        5.1817059511       27.8591041951
  H        11.1960835058        6.7743584321       27.3038984303
  C         8.7526350909        6.0504092777       26.3603615918
  H        10.5874130638        4.9036122694       25.8913805266
  H         9.5625958920        4.2556033748       27.1605640689
  C         7.5594158497        5.2863507946       25.6953512812
  H         8.4474506592        6.6272507742       27.2077100118
  H         9.0390087470        6.7427579673       25.5616011456
  C         7.1524973732        3.9681218803       26.4726237465
  C         7.9718737218        4.4793508207       24.5276980667
  C         6.3133915861        6.1744123629       25.5673137144
  C         7.3684529184        2.8273945436       25.6744053021
  C         6.5819848580        3.6302654166       27.7177751501
  C         7.8684376129        3.1333757660       24.4121851219
  C         8.4028467568        5.0895818974       23.3438793242
  H         6.4815368355        6.8272126140       24.7734666088
  H         6.3128297556        6.7890240229       26.4164677329
  C         5.0627098997        5.4035845215       25.2026088706
  S         6.9554044072        1.3877773307       26.4573790831
  C         6.4122602686        2.3021183429       27.8894460826
  H         6.3744877014        4.4220705049       28.3851674222
  C         8.2791262387        2.4655640548       23.3351551589
  H         8.5984629535        6.1200917393       23.3839746734
  C         8.8474342321        4.4354224036       22.2324611162
  H         5.4287713010        4.9636433027       24.2498739488
  H         4.8015064089        4.6628709553       25.8763176469
  C         3.8163176930        6.4107758281       25.0848709845
  C         5.9538594813        1.6724014308       29.1658432644
  C         8.7951286110        3.0694454714       22.2072130655
  H         8.0951622726        1.3999552244       23.2140741830
  C         9.2823519760        4.7992913935       20.9522508954
  H         3.0777844790        6.1440068565       24.3307888396
  H         4.1648280100        7.3564528226       24.6695223383
  C         3.1562085560        6.6774028331       26.4945557109
  C         5.9528982951        0.2767826075       29.4480750920
  C         5.5792766314        2.5216912959       30.3265822051
  C         9.3108426109        2.3191409408       21.0282414449
  C         9.5790545977        3.6685970323       20.2498854710
  S         9.4796271624        6.2493036849       20.0120530959
  H         2.6678767693        7.5719062283       26.5138947977
  H         3.9712637905        6.8130547660       27.2263415577
  C         2.2850980633        5.4801703144       27.0494461871
  N         6.2092026121       -0.6157587118       28.4979623373
  C         5.5719111913       -0.2223165302       30.6578877997
  C         5.1983646965        2.0285287364       31.5858714829
  H         5.5329774350        3.5688397821       30.1418202360
  C         8.1625612436        1.4406918757       20.3864878060
  C        10.5928891828        1.5688112271       21.2489377117
  C        10.0212460053        4.0028691539       18.9392166391
  C         9.8929078770        5.3442162653       18.6567935039
  H         1.5813509056        5.2134775385       26.2844318736
  H         2.8816649956        4.5175698443       27.1483308376
  C         1.5250325663        5.6488659514       28.3362557339
  S         6.1337498972       -2.0835983670       29.1953087610
  N         5.7412910938       -1.6255854369       30.7048694440
  C         5.1588028094        0.5453092396       31.7258644506
  H         4.9284557632        2.7516106697       32.3006118345
  H         8.1387684064        0.4809042812       20.9322365555
  H         8.4479010217        1.1479889254       19.3697937390
  C         6.7105207714        2.0924350222       20.2798493191
  H        10.8572322163        1.0188261379       20.3919750148
  H        10.4864251698        0.8921918363       22.0876861511
  C        11.8067581026        2.4377967044       21.5803438311
  H        10.1921425676        3.2140681642       18.2459306637
  C        10.1248559041        6.0693558470       17.3714240057
  H         0.8177004102        4.8727798838       28.5000730360
  H         1.0281638858        6.6205699542       28.3674992529
  C         2.5787775300        5.6231583186       29.4558841536
  C         4.9708455948       -0.0153856618       33.0050846629
  H         6.8232195271        3.1304458359       20.5184475195
  H         6.2080885922        1.6407160335       21.1388233518
  C         5.9255507561        1.9415109337       18.9438970241
  H        11.6231865570        2.9905954038       22.4172263624
  H        11.9988088972        3.1785110333       20.8376901548
  C        13.0012907872        1.5240015608       21.7119467829
  C        10.2076502724        7.5146586424       17.1901137397
  C        10.2466971343        5.3127428487       16.1365139656
  H         3.4787415661        4.9114210630       29.3061622463
  H         3.0121258273        6.6282328475       29.6017621271
  C         1.9203155054        5.3082683931       30.7934431925
  H         5.0763880694       -1.0696591077       33.0032952126
  C         4.7568017424        0.3718020976       34.2804640207
  H         6.0715091290        0.9762454811       18.4506875053
  H         6.3759700392        2.6586725734       18.2269743850
  C         4.4732363670        2.1978798073       19.0571039423
  H        12.8896443458        1.0954981008       22.7519912886
  H        12.8961180365        0.6618445645       20.9884459990
  C        14.3057383789        2.3447793641       21.3681187636
  N         9.8061361017        8.5111000444       18.0773047332
  C        10.5515902625        8.0817483788       15.9544390434
  C        10.5362933702        5.9001957900       14.8684267766
  H        10.1075154333        4.2083920796       16.1440700553
  H         1.2294073683        4.4366675991       30.7074581009
  H         2.7427292429        5.0667642942       31.4894282595
  H         1.3808982950        6.1360331030       31.2469148527
  S         4.3301528724        2.0057870954       34.7752795134
  C         4.7587886487       -0.5859149965       35.3577424162
  H         4.3112284770        3.0769774490       19.7467297859
  H         4.1266449972        2.5758728954       18.0925320111
  C         3.6981951844        0.9446965057       19.4400973229
  H        14.2716428005        3.1313462600       20.6649949233
  H        15.0317711874        1.6480692103       20.9699238305
  C        14.8997712832        3.0464893661       22.6054667462
  S         9.9443570360        9.9759302507       17.3792588183
  N        10.5790117819        9.4684140570       15.9942083907
  C        10.6941489480        7.3610250461       14.7743572828
  H        10.5226413739        5.2591511216       14.0438283034
  C         3.9993622960        1.2283880561       36.3680024213
  N         4.2269052352       -0.0370298594       36.4675565805
  O         5.0407834140       -1.8267061382       35.3193005953
  H         3.5700012866        1.0597427809       20.5085652286
  H         4.1615429832        0.0090467232       19.3655437650
  C         2.4137257561        0.8606990254       18.6227717756
  H        14.4612143673        3.9733703314       22.8985860203
  H        14.7537372559        2.3217845361       23.4468814906
  C        16.3816720714        3.2643275603       22.4098646688
  C        10.9530931362        8.0314982237       13.5484106336
  S         3.5770069326        2.1294665324       37.8029814155
  C         4.1872518601       -0.8604593170       37.7111724015
  H         1.8216408666        1.5119173245       19.2866091665
  H         2.4423841993        1.2499509182       17.6462305739
  C         1.7304613142       -0.5342210005       18.6504126784
  H        16.6904437787        4.2378058408       22.8421947591
  H        16.8451757535        3.2832884917       21.4159019652
  C        17.1884619736        2.1502165241       23.1554253835
  H        10.6162507722        9.0220904712       13.4533335044
  C        11.5159766219        7.6031430063       12.3669009762
  H         3.3549217337       -0.4238118359       38.3429936516
  H         3.8090473103       -1.8857736976       37.5739111792
  C         5.6027957850       -0.8804774174       38.3332509210
  H         0.7722715695       -0.5105832282       18.1907785582
  H         1.6372015398       -0.7847088039       19.7442451290
  C         2.3441995706       -1.6953042107       17.9815338440
  H        17.0970307552        1.2281082509       22.6094113489
  H        18.2430655537        2.5217244070       23.0699976558
  C        16.8622032569        2.0413863452       24.6551790610
  S        12.2087385392        6.0441187532       11.9715379268
  C        11.6325112830        8.6316647152       11.2949084375
  H         5.8418148446       -1.8654618806       38.6532298277
  H         6.4326765737       -0.5565017629       37.6810404109
  H         5.6463499439       -0.2895365909       39.2778728913
  H         2.4942314641       -1.3648459908       16.9252762437
  H         1.8780994372       -2.7455997899       18.1073982628
  H         3.3435090019       -1.8608719460       18.4183568126
  H        16.3945534489        2.9795950223       24.9422784283
  H        17.8019488375        1.8382200699       25.2138155299
  H        16.1451355354        1.2460675029       24.9005098085
  C        12.2887638913        6.6647200406       10.3441316963
  N        12.1749469719        8.0124529890       10.2344000493
  O        11.5194633840        9.9092700414       11.4019786218
  S        12.9751212308        5.6501392354        9.1089337459
  C        12.3157440129        8.6636072580        8.9769183295
  H        12.4274408733        9.6462350654        9.1919765364
  H        13.1169140146        8.4797235048        8.3859825614
  C        10.9668081112        8.5714786707        8.2559003300
  H        11.0703549655        8.9682863627        7.3084739684
  H        10.7292216510        7.4859135073        8.1289421867
  H        10.1871275906        9.0451165691        8.8020756487
  H         5.0031193833        2.2110807164       12.4369922993
  C         3.9715585859        2.4934284862       12.7569763711
  H         4.0162688844        3.5719829768       12.7745272278
  C         3.0991931055        2.1598683853       11.6011793195
  C         3.6433178709        2.0308635594       14.1417602125
  C         3.7644362204        2.1494604794       10.1889299485
  H         2.2296226798        2.7368347909       11.4486496279
  H         2.7216167700        1.1846074225       11.8792787772
  H         3.8826580943        0.9669537127       14.3094436276
  H         2.6056831761        2.2175002545       14.4378637488
  H         4.2512324123        2.6487738458       14.8604400906
  C         4.7207447672        0.9698965568        9.9269791633
  H         2.9447199560        2.0424639483        9.4850645070
  H         4.2472324956        3.1021001212       10.0522743083
  C         5.4735850964        1.1146986621        8.5712022320
  H         4.1940318599        0.0252157396       10.0160061797
  H         5.4820225042        0.8923282113       10.6898522316
  C         6.6560859227        1.9979320207        8.5886037325
  H         4.8398294946        1.4652935146        7.7792031884
  H         5.6798702869        0.0990407612        8.2160165137
  C         7.9468319003        1.3457903058        9.1448443915
  H         6.8559863755        2.2667726052        7.5514475510
  H         6.3210161535        2.8158543266        9.1530584815
  C         9.0741512527        2.3330322244        9.1739396996
  H         8.1771159236        0.4141530894        8.5876900997
  H         7.6901659137        0.8949505666       10.0982049308
  C         8.6876551491        3.6771858055        9.8586486960
  C         9.3941441264        3.0960422928        7.9147761755
  C        10.2992366304        1.7125833785        9.8286893444
  C         8.9124059484        4.7866360859        9.0529656326
  C         8.2906044737        4.0068084249       11.1727771568
  C         9.3279483838        4.4188668686        7.8202456431
  C         9.8281684544        2.5163467023        6.7337833240
  H        10.0276441209        1.0437341327       10.6649135072
  H        10.7878539557        1.2265786499        9.0432883434
  C        11.2878855023        2.7521297753       10.2586521050
  S         8.5840730802        6.2341287747        9.9205076776
  C         8.0546891524        5.3816731210       11.2916166818
  H         8.1265202354        3.2023832254       11.8753114490
  C         9.6334440636        5.1088114982        6.7005921237
  H         9.8417972722        1.4929305131        6.7818382761
  C        10.1490907360        3.2015964608        5.5826320444
  H        10.8384995193        3.4659994176       10.8216222218
  H        11.8085630908        3.1781716144        9.3235139698
  C        12.4735922714        2.2079810598       11.0928742901
  C         7.6884605174        6.0640101536       12.6210345478
  C        10.0760335445        4.5413178205        5.5257180599
  H         9.6212063180        6.2091552463        6.6848239922
  C        10.5549403291        2.8548208679        4.3352029168
  H        13.2710079245        2.9878300134       11.1145111362
  H        12.9286404175        1.2794552107       10.6301038072
  C        12.3266673688        1.6788083464       12.5236288456
  C         7.6085661967        7.4098083178       12.8697517605
  C         7.3694269363        5.2509726784       13.7693321435
  C        10.3526484242        5.2544651483        4.2932513361
  C        10.7286584601        3.9244786827        3.5295568041
  S        10.9054566944        1.3484311896        3.5716931660
  H        11.5894525908        0.8839881122       12.5378298296
  H        13.2610382541        1.1362179437       12.7998344651
  C        11.8422882987        2.5043712406       13.7961524463
  N         7.8650160613        8.4240648089       11.9575052494
  C         7.3276013585        7.9678338980       14.1370044832
  C         7.1085421720        5.8201026964       15.0323611294
  H         7.5155229440        4.1669617491       13.7144468510
  C        11.5854665563        6.1810956915        4.2873227541
  C         9.1385389820        6.0363749998        3.6811124989
  C        11.0374513641        3.5369075038        2.2571986261
  C        11.2366184692        2.1856517755        2.1386004014
  H        10.8013157499        2.8867997551       13.5927929617
  H        12.4282740780        3.4179421978       13.9313143432
  C        11.6891946236        1.7265213108       15.1054291670
  S         7.6244057977        9.9281331477       12.6227226525
  N         7.4687620785        9.3600782972       14.1321330587
  C         7.1295018965        7.2643649909       15.2996328358
  H         6.6912033796        5.2150464886       15.8039118129
  H        11.3298434930        7.2543492918        4.4486702041
  H        11.9769710209        6.2202505333        3.2436751573
  C        12.6259156055        5.8366949277        5.3657264930
  H         8.9364397751        6.8111098241        4.3682640015
  H         9.4303232602        6.5178547995        2.7149754642
  C         7.8482915858        5.1584819961        3.5447704995
  H        11.1581572684        4.3490430718        1.5418850485
  C        11.6431211262        1.4327327765        0.9202336856
  H        10.7086475114        1.9203398508       15.5281294160
  H        11.8112868658        0.6639849400       14.8474626043
  C        12.6138210672        2.1326573088       16.1868459687
  C         6.8352491017        7.9385144413       16.5446619522
  H        12.2899260296        6.0773113447        6.3492311640
  H        12.7137094756        4.7305115592        5.4121021770
  C        13.9131122974        6.5884439665        5.0893877570
  H         7.6042070464        4.6123387040        4.4333251257
  H         7.9800638476        4.4093942501        2.7155295070
  C         6.6853945369        6.0499870808        3.2442334993
  C        11.8466194130        0.0858021481        0.7648510438
  C        11.9203344786        2.1658377239       -0.2608720505
  H        12.5173007243        3.2068515681       16.3354088245
  H        13.5973883347        1.9978865766       15.9052158700
  C        12.4219524697        1.4394451313       17.5211499882
  H         7.1266994530        8.9887238020       16.5419437319
  C         6.5615677162        7.5154051615       17.8313433602
  H        13.7139061585        7.6890093244        5.1753962478
  H        14.3454832300        6.3842231220        4.0861062979
  C        14.8833379851        6.2571536835        6.2769760906
  H         5.7510992814        5.6793720841        3.6024178326
  H         6.7681836269        6.9826906965        3.7013784418
  C         6.5369504263        6.1977097419        1.7345251820
  N        11.5209655812       -0.8390578628        1.7649496087
  C        12.2200417992       -0.5629361724       -0.4035632343
  C        12.2245175833        1.6041229631       -1.4653822307
  H        12.0109852279        3.2305626265       -0.2167977918
  H        11.3785573374        0.9285259828       17.7547261654
  H        12.6127459886        2.1483730036       18.3484853249
  H        13.1741329376        0.5971278876       17.6167514553
  S         6.2254363154        5.9216360604       18.2904814839
  C         6.5787174634        8.4997482295       18.8740369765
  H        14.8455462313        6.9424735072        7.0312951705
  H        14.5367623635        5.3623481176        6.8515683336
  C        16.3351887267        5.8542099715        5.8191635341
  H         7.0721195408        5.4141162718        1.2779474733
  H         7.2039228760        6.9783147160        1.3602987108
  C         5.1207145925        6.3267367948        1.1937540572
  S        11.7805890064       -2.3353174034        1.1927146217
  N        12.2329896144       -1.9026524729       -0.3203812152
  C        12.3771658925        0.1316877686       -1.6407220174
  H        12.3726408603        2.3419425869       -2.3200612832
  C         5.9627729858        6.5461825709       19.9435561897
  N         6.0861928266        7.9203408210       20.0248051798
  O         6.8419069153        9.6321714834       18.7191276507
  H        16.2917102072        5.1422653658        4.9725391858
  H        16.9803096921        6.6523892387        5.5096460984
  C        17.0907079140        5.0999646607        6.9343300891
  H         5.0326910943        6.0727072992        0.0624847355
  H         4.5220863023        5.5860879457        1.7073759609
  C         4.5125876810        7.7585829005        1.4711076667
  C        12.7610536182       -0.5643781106       -2.8290306703
  S         5.6369650570        5.6487347147       21.4014928464
  C         6.0566816385        8.7239357190       21.2309232099
  H        16.6100397029        5.1522627888        7.9391110000
  H        17.1723428477        4.0572853070        6.6366362424
  C        18.4144987689        5.6821707381        7.2583986918
  H         5.0778881656        8.1712461923        2.3511362629
  H         3.5990017204        7.7307379788        2.0985176602
  C         4.6150356660        8.7363190864        0.3152999706
  H        12.7543744167       -1.6179346901       -2.7573167275
  C        13.3935797006       -0.1986432732       -3.9852278948
  H         5.4575202870        8.2889472663       21.9858492939
  H         5.6802240299        9.7339918327       20.9971628305
  C         7.5609356145        8.9376942311       21.8598564423
  H        18.7761112961        5.3258749984        8.2214389083
  H        18.2525262025        6.7614517773        7.3758710322
  C        19.4560405293        5.4826696153        6.0958856436
  H         5.3380353410        8.3653711876       -0.4164454495
  H         3.6902434232        8.7910321284       -0.2967985461
  C         4.7912804132       10.2311907180        0.6904722317
  S        13.8012785886        1.4359755730       -4.5533997887
  C        13.6824907697       -1.3352460641       -4.8980345567
  H         8.2300346563        8.1394236498       21.9046615265
  H         7.3821909498        9.2926897228       22.8311602918
  H         8.0246542930        9.6940268184       21.2588858685
  H        19.6594273818        4.4264039483        5.9588740313
  H        19.1587885661        5.9022044666        5.1956793482
  H        20.3048370751        6.0494284227        6.3577734665
  H         5.8110009824       10.4264413873        1.0414487472
  H         4.4831365513       10.8665506194       -0.0750266414
  H         4.1110976182       10.5140806891        1.4857634290
  C        14.6271295841        0.5407024536       -5.8101505526
  N        14.3315760188       -0.7731382978       -5.9336950427
  O        13.3420726383       -2.5094412844       -4.7935273586
  S        15.3555460249        1.3613892549       -7.2995653439
  C        14.3824186464       -1.4853374606       -7.2094764372
  H        14.4858375697       -2.5677293995       -6.9522469760
  H        15.2687190108       -1.1422920272       -7.7538288072
  C        13.1125515358       -1.3503954942       -7.9636877548
  H        12.2860372388       -1.1474612086       -7.2497849897
  H        12.7581251706       -2.2941099907       -8.5404493468
  H        13.2265733184       -0.4849494060       -8.6483060478
