352
 i =    66100, time =    33050.000, E =        99.9977289878
  H        11.6137192001        7.3771035991       32.1917582610
  C        11.4229404478        6.3023373571       32.3573121921
  H        12.4473063092        5.9986794428       32.6454078344
  C        10.9451085526        5.6971321197       30.9480756048
  C        10.4291630008        5.9444393697       33.5018578621
  C        11.8939561672        5.8040424067       29.7215156485
  H        10.5706260457        4.7008413940       31.1052473902
  H        10.0190067161        6.1993497951       30.5665664849
  H         9.4663801610        6.4077060090       33.4884275390
  H        10.3620013569        4.8665141790       33.4386129961
  H        10.9999509784        6.1665204772       34.3969396027
  C        11.5295884585        4.8898816643       28.4512485944
  H        12.9432104578        5.5616199120       30.0213453564
  H        11.8927334760        6.8626905471       29.4811833037
  C        11.4883641224        5.4846253130       27.1026353804
  H        12.2082260995        3.9402144561       28.3732124245
  H        10.5136194899        4.4361129496       28.5418471996
  C        10.3156844749        4.9799459035       26.1242867762
  H        12.4287921319        5.1495520845       26.6797288717
  H        11.6176305426        6.5585398871       27.2030510361
  C         9.0430223063        5.8598882550       26.1310955623
  H        10.7556859562        4.9688806935       25.0984676053
  H         9.9536775686        3.9576290867       26.3663107396
  C         7.8862277775        5.2150112756       25.4217087025
  H         8.6117568325        5.9322307126       27.1062659553
  H         9.2203432505        6.8339598138       25.7287587599
  C         7.4717273030        3.9004838322       26.1224915290
  C         8.1905256409        4.5705116575       24.1340878051
  C         6.6407962189        6.1565951903       25.4005982944
  C         7.5255871544        2.8149525918       25.1643023000
  C         6.9445303555        3.5468131259       27.3750937650
  C         8.0454915871        3.2510242326       23.9995678703
  C         8.5484301068        5.2682205610       22.9661892336
  H         6.8928804976        6.9954067731       24.6530836989
  H         6.5757068307        6.5626206796       26.4034913256
  C         5.3854521150        5.4860289084       24.8733956355
  S         6.7495545849        1.4271605900       25.7619984957
  C         6.5175349945        2.2191341250       27.3972268171
  H         6.9321012605        4.2853538396       28.1856945358
  C         8.3158606072        2.6466931840       22.8163984880
  H         8.6247152338        6.2715880386       22.9463546001
  C         8.7141784388        4.6489112370       21.7789302598
  H         5.5287777923        5.0686598569       23.8530793057
  H         5.1539708958        4.6108143036       25.4628978031
  C         4.0906773687        6.2938860535       24.8835050864
  C         5.9956290582        1.5769710681       28.6691675014
  C         8.6665462003        3.2955622664       21.6514541318
  H         8.2122231740        1.5750160254       22.6714695026
  C         9.0460633739        5.0204289114       20.4669777376
  H         3.3466951936        5.7624579032       24.3022790460
  H         4.2904166020        7.1939487174       24.3455753914
  C         3.5167026010        6.5503536892       26.3145612643
  C         5.9126956900        0.1959610995       28.9488958252
  C         5.6788108630        2.4486337336       29.8316974226
  C         8.9337931584        2.5760273324       20.3655755777
  C         9.1921134765        3.8916383787       19.6645960471
  S         9.2078792270        6.5242826930       19.6600845923
  H         2.9683007768        7.5181505759       26.3748780936
  H         4.2252224374        6.5211897729       27.1664136039
  C         2.4486230958        5.5062950580       26.6362889108
  N         6.2359850155       -0.8093112910       28.0096246333
  C         5.6364193331       -0.3370532626       30.1716510852
  C         5.4290598653        1.9549506489       31.0566684270
  H         5.7000457063        3.4920561589       29.7451804071
  C         7.7640918739        1.7613486639       19.7819081978
  C        10.2403555606        1.8015596767       20.4375358715
  C         9.5085024073        4.2848971573       18.3283769258
  C         9.6365340349        5.6644179732       18.1879605195
  H         1.5858077660        5.5450817275       25.8846765164
  H         2.9477727428        4.5640369773       26.7145608717
  C         1.7483242587        5.7558458925       28.0230305607
  S         6.1432627451       -2.2643682836       28.6888395981
  N         5.7330496978       -1.7395826843       30.1795575529
  C         5.3436285538        0.4908076991       31.2904913253
  H         5.1928498922        2.6469723193       31.7936754902
  H         7.6011074958        0.9503044617       20.4632973601
  H         8.0626644367        1.2504664672       18.8208825090
  C         6.4200771052        2.5472763950       19.6948803254
  H        10.3724511765        1.3430277502       19.4474354410
  H        10.0445441633        0.9225002730       21.0705472550
  C        11.5115325137        2.5313027363       20.8846570065
  H         9.6817655613        3.4655164263       17.5933922093
  C        10.0398038653        6.3660666353       16.9259683640
  H         0.9829251578        5.0177823113       28.0153960897
  H         1.3207118251        6.6951492573       27.9401508407
  C         2.7399550339        5.4921507464       29.1464074290
  C         5.0341773759       -0.1142528850       32.5831688269
  H         6.5093773769        3.3711168122       19.0188743318
  H         6.3162776169        3.0941177318       20.5957956296
  C         5.1899627615        1.6780408090       19.2578504236
  H        11.2498583138        3.2059179472       21.6592882257
  H        11.7742831660        3.1947743521       19.9902478309
  C        12.7874085345        1.7363677661       21.3242226950
  C        10.1142079592        7.7821865266       16.7367820949
  C        10.3934088614        5.5288875952       15.7665589004
  H         2.8309348154        4.3812704743       28.9732460285
  H         3.7713921362        5.9104435134       29.2791653861
  C         2.0089113979        5.6870430253       30.4219113101
  H         5.2206661492       -1.1757205504       32.6286322193
  C         4.7656878305        0.3718889813       33.8384690423
  H         4.8085746399        1.0787736277       20.1475381106
  H         5.5851318150        0.9589990525       18.5377203538
  C         4.0020272642        2.5257420753       18.6885494483
  H        12.5374498292        1.4911931194       22.3152108728
  H        12.8188741153        0.8279026261       20.7416969023
  C        14.1301032078        2.4270120737       21.2383001903
  N         9.9739007978        8.7036028126       17.7755819061
  C        10.2519220045        8.3496423919       15.4603032508
  C        10.5706022017        6.1232874507       14.5354260434
  H        10.5978565716        4.4890415796       15.8894905925
  H         1.2951199017        4.9450095298       30.6076177275
  H         2.6319535834        5.7716440490       31.3425490396
  H         1.5171575158        6.5858762784       30.3768785824
  S         4.5519990350        1.9626750091       34.3325781833
  C         4.8188992342       -0.6276471000       34.9644026945
  H         3.7460345361        3.4473585880       19.3284129154
  H         4.2292689879        2.9814361742       17.6961410370
  C         2.6638075179        1.8594126835       18.4847011536
  H        14.0502051263        3.3913574571       20.7547872418
  H        14.7778559811        1.8788803131       20.5949057719
  C        14.6949897784        2.7222431556       22.6671049407
  S        10.0926814610       10.1665770053       17.0777802534
  N        10.3801788263        9.7225188619       15.5679608634
  C        10.6184325991        7.5643801573       14.3624802795
  H        10.6505308126        5.5161545479       13.6487593061
  C         4.4554969922        1.3255724939       36.0090276126
  N         4.4558757199        0.0134103986       36.1213164446
  O         5.0365325017       -1.8290997460       34.9000697204
  H         1.9743879104        2.5686205382       18.0978785869
  H         2.2893137432        1.5929411070       19.4580936976
  C         2.8531546567        0.6661339692       17.4270589537
  H        13.8789977602        3.0220921461       23.3566400339
  H        14.9794886079        1.7669354285       23.1727741820
  C        15.9005287319        3.7207992634       22.6528437178
  C        10.8124101611        8.3379864036       13.1253061232
  S         4.0659663491        2.2469104198       37.4687438083
  C         4.3255165121       -0.6848766874       37.4050010802
  H         2.3181999211        0.8302598381       16.4488495901
  H         3.8409543479        0.8085467088       17.0382008249
  C         2.7804817791       -0.6358416368       18.2275461482
  H        16.3063976499        4.0689300676       23.6563542586
  H        15.4490431631        4.5852056169       22.1771352514
  C        17.0643920389        3.1932710679       21.8199113881
  H        10.6187200384        9.3753551594       13.1535471162
  C        11.2688990223        7.9957212428       11.8940564115
  H         3.6176299758       -0.1005892045       38.0980585182
  H         3.8758550141       -1.6575772081       37.1982626628
  C         5.7472025503       -0.8914551336       37.9232941970
  H         3.1608659264       -0.5009361953       19.2014858803
  H         3.4193750694       -1.4208164009       17.8332398850
  C         1.3550941214       -1.0925135277       18.3615595285
  H        16.6124755987        2.9578035064       20.8474508370
  H        17.7401682314        4.0841050479       21.6178007646
  C        17.8978032052        2.1407627043       22.6000551105
  S        11.8147947573        6.4383827084       11.3208307363
  C        11.3589061987        9.0946563012       10.9434584991
  H         5.9185294607       -0.2482939288       38.7496574315
  H         5.7763551606       -1.9244000004       38.1958075112
  H         6.4385048463       -0.6858672632       37.1632398357
  H         1.3413453182       -2.1084763644       18.6433891251
  H         0.7905341231       -0.8741232673       17.4684926943
  H         0.9311022857       -0.4546804532       19.1208553199
  H        17.4969012331        1.0769671209       22.6640241801
  H        18.0043276783        2.4275101102       23.6393924202
  H        18.8968978807        2.1497858818       22.2460119461
  C        12.2523061641        7.3639194674        9.8097123899
  N        12.0915758755        8.6872529267        9.8379666456
  O        11.1271376638       10.2509594340       11.1923641276
  S        13.0178307966        6.5842115618        8.4848030554
  C        12.4604463111        9.6485205478        8.8212422044
  H        12.7736077395       10.5338872642        9.3017375478
  H        13.3015596954        9.2121524432        8.2236168598
  C        11.2849879436        9.9439406922        7.8771687331
  H        11.4759986567       10.7618811309        7.1706002731
  H        11.0040486263        9.1028393238        7.3067841096
  H        10.4174438381       10.2894000240        8.5492411368
  H         4.9685478651        2.3339392755       12.4321332074
  C         4.1752749100        3.0081028701       12.7261293405
  H         4.5116125987        4.0413958988       12.7220979715
  C         3.1838763289        2.9105786859       11.6317483742
  C         3.4989018620        2.6031528948       14.0304125079
  C         3.8442102814        2.9706681184       10.2575986548
  H         2.3725782872        3.6784649734       11.6675592448
  H         2.6429214932        1.9701293040       11.8569585319
  H         3.3449988762        3.5886382239       14.4633943587
  H         4.1314592446        1.9371052234       14.5634722473
  H         2.4968866633        2.1085477771       14.0445427698
  C         4.3756572111        1.7455991744        9.5461633498
  H         3.1629155516        3.4974844831        9.5345509700
  H         4.6428175712        3.6779126470       10.2198955320
  C         4.9142743280        2.0129297090        8.1571554916
  H         3.5777480543        1.0141893657        9.5905636769
  H         5.1854148649        1.4729561787       10.1641530180
  C         6.1866293588        2.9169731326        8.0254106883
  H         4.0525804359        2.3584444834        7.5924274726
  H         5.1362701645        1.0587996802        7.6392073075
  C         7.4204918452        2.2219851711        8.5691643474
  H         6.3992827518        3.2229334220        6.9501999828
  H         5.9911707512        3.7982589881        8.6631021128
  C         8.6776285446        3.0795876738        8.7466619708
  H         7.6136553449        1.3116526450        7.9933965097
  H         7.2617444026        1.7856338281        9.5458548554
  C         8.2865194369        4.4171266353        9.4518609307
  C         9.2442655133        3.7970166789        7.6508897974
  C         9.7778303188        2.4870220478        9.6698848893
  C         8.5933587290        5.5034741631        8.6917057226
  C         7.7763355191        4.7852540606       10.7610890939
  C         9.1993568646        5.1396696293        7.5177918586
  C         9.7995619724        3.1625746126        6.5686733242
  H         9.3186020499        2.2897344553       10.6221192309
  H         9.9332407087        1.4446978212        9.2609587724
  C        11.1018378726        3.2073046386        9.8890427424
  S         8.2724220528        7.0383629200        9.4429119189
  C         7.8319845994        6.2015694195       10.8951515274
  H         7.3908500914        4.0529751977       11.4708963661
  C         9.6922453212        5.7161852666        6.3769828074
  H         9.7835407754        2.0515979461        6.6541819721
  C        10.2565774286        3.7247947487        5.4040265172
  H        10.9500826881        4.1686720505       10.3983005437
  H        11.6288196499        3.3648718646        8.9079740609
  C        12.0694048362        2.5901651989       10.8919445086
  C         7.5710325159        6.9069778738       12.2156435659
  C        10.2017722184        5.0330084055        5.2486334835
  H         9.6683804802        6.8266657468        6.4278982330
  C        10.6569341904        3.2925791873        4.1289925329
  H        12.9640163715        3.2053897539       11.0435802215
  H        12.5823428507        1.7003092450       10.5842240470
  C        11.5911311117        2.5582236998       12.3355959556
  C         7.5547945902        8.2960706903       12.5534753039
  C         7.2227358646        6.0877338411       13.4073344319
  C        10.6137852707        5.7433255425        3.9793766370
  C        10.9138757915        4.3875247676        3.2896812983
  S        10.9336653843        1.7403090994        3.5172607898
  H        11.8599389220        3.4929179261       12.6870637221
  H        10.5117245906        2.5729449295       12.3757657142
  C        12.1679506659        1.4226890009       13.2143953357
  N         7.9918148871        9.3135970794       11.7505917060
  C         7.2952077162        8.8520995379       13.8328428908
  C         6.8933766705        6.6573818221       14.6314939088
  H         7.1027208698        5.0061014982       13.3336474197
  C        11.9377361973        6.4710232106        4.1274073328
  C         9.4700264454        6.5613727328        3.2433030115
  C        11.3638430925        3.9311105824        2.0419261468
  C        11.3609926010        2.5229026980        1.9844118023
  H        13.2213155176        1.0777090524       13.0926825912
  H        11.5857342559        0.5450508437       12.9732494173
  C        11.9785876473        1.7256811854       14.6801213935
  S         8.1948320693       10.7091949429       12.5551925013
  N         7.5986069376       10.2114660136       13.9910254724
  C         6.8572659648        8.0935566546       14.9530062314
  H         6.7016572380        5.9447903926       15.3998436158
  H        11.7415340757        6.9965611967        5.0346940119
  H        12.1089511893        7.1501316548        3.3232112842
  C        13.1319973176        5.5909530804        4.3621843210
  H         9.0366689072        7.3687523311        3.8478231277
  H         9.8549457775        7.0265846819        2.3698805441
  C         8.2996237268        5.6051379536        2.7981592849
  H        11.6050993886        4.6268031029        1.2878619701
  C        11.7350887211        1.6979655350        0.7695456492
  H        11.3455457825        2.6338264968       14.7010893630
  H        11.2464246927        1.0770392542       15.1871003719
  C        13.2564332229        1.8451056211       15.4860602061
  C         6.5374693081        8.6388032484       16.2024710506
  H        12.8271414332        4.8493667587        5.0571515051
  H        13.5911420149        5.0821306709        3.4723076215
  C        14.2446713503        6.4365703437        5.0183986995
  H         7.7678256998        5.1094290438        3.6062067936
  H         8.6722631859        4.7948687012        2.1267797804
  C         7.3121285898        6.3380498871        2.0067058122
  C        11.8152277718        0.2665499595        0.5902368775
  C        12.0781121385        2.5380763353       -0.4518334663
  H        13.9873899743        2.2317970112       14.8085208045
  H        13.6862957480        0.8251258944       15.7511308038
  C        13.1463443391        2.7204000072       16.7492555528
  H         6.7012371776        9.7321862977       16.1983762828
  C         6.2959919273        8.1303332383       17.4669811899
  H        13.9402667142        7.1028162342        5.8510463283
  H        14.6702723296        6.9630615877        4.1798617703
  C        15.3746410774        5.6128782324        5.4553314624
  H         6.8601537623        7.0308313941        2.7771435650
  H         7.5731603428        6.9778542344        1.1710750442
  C         6.1799718237        5.5501668651        1.3776863741
  N        11.5237907626       -0.6610945192        1.5371350972
  C        12.1999598536       -0.2395713098       -0.6257874540
  C        12.3815946326        1.9899525154       -1.6349359576
  H        11.9708953853        3.6263714624       -0.4280092809
  H        12.4159966331        3.5100912357       16.7444599009
  H        14.0957481308        3.2691368003       16.9345005619
  H        13.1027076677        2.0545923483       17.6745323286
  S         6.2583084011        6.4467445042       18.0284847706
  C         6.2086890049        9.1292561149       18.5997139947
  H        14.9603114389        5.1452113849        6.2772545814
  H        15.6486048139        4.8996828649        4.6563172118
  C        16.5587392364        6.3266986717        5.9163250091
  H         5.8315905066        4.7385304155        2.0346787180
  H         6.4803273887        5.0567481416        0.4563954896
  C         5.0345587528        6.3856404477        0.8591610356
  S        11.5099106750       -2.1442413266        0.8338551234
  N        12.0563487024       -1.7159443068       -0.6594530343
  C        12.5511309562        0.5263466316       -1.7504980303
  H        12.5360610489        2.6403577222       -2.4884328145
  C         5.9491758887        7.0937004693       19.5946208115
  N         5.8140847537        8.4433233053       19.7066074398
  O         6.3133750912       10.3412625643       18.4435283795
  H        17.0434742746        6.9206346826        5.1322785977
  H        16.2875030846        7.1096173236        6.6508637482
  C        17.5305750432        5.3400195112        6.5970260295
  H         5.4634424614        7.2888006134        0.3998167513
  H         4.6146302144        5.9355029370        0.0288461432
  C         3.9176745090        6.6283710716        1.8121915523
  C        12.7081996071       -0.1946647378       -2.9831355080
  S         5.3864643078        6.1551057816       20.9300352851
  C         5.5742318643        9.1068723843       20.9831138623
  H        16.9217653370        4.8303646327        7.3514564459
  H        17.8185822651        4.6899982307        5.8384640012
  C        18.7203770730        6.0356504382        7.3361847895
  H         4.2600220757        6.4948007071        2.8001252151
  H         3.1839938468        5.8769235121        1.6261454381
  C         3.2819008645        7.9852418887        1.6410135650
  H        12.5836003595       -1.2473170154       -3.0684589955
  C        13.1519126208        0.1980660854       -4.2552995169
  H         4.7764555843        8.6433118076       21.5894478492
  H         5.0572843863       10.1181772417       20.8068097401
  C         6.8519648616        9.1142115405       21.8369054101
  H        19.0283140468        5.4696276452        8.2089681755
  H        18.3422873984        7.0314260403        7.6984021292
  C        19.7913224094        6.1782621448        6.3375929173
  H         3.1717344199        8.1556202192        0.5517650727
  H         2.2533539095        8.1063810261        1.9991908743
  C         4.0350494233        9.1650944524        2.2069528606
  S        13.6421452362        1.7437966282       -4.7372604851
  C        13.2591410568       -0.8958266523       -5.3043934322
  H         7.1075417989        8.1172027660       22.1423163904
  H         6.8444001016        9.7832111253       22.6568138130
  H         7.6811243958        9.4671961865       21.2188403607
  H        20.2191628417        5.2017632694        5.9657311316
  H        19.3797647287        6.7957685817        5.5729492616
  H        20.5335384083        6.8157184680        6.8533805343
  H         3.7302843699        9.3950232536        3.2094590722
  H         5.1062889472        8.9997296426        2.1672630435
  H         3.7078718488        9.9901111830        1.5555786711
  C        14.1392284176        0.9963963544       -6.1939378082
  N        14.0017951654       -0.3495814323       -6.3222040544
  O        13.0565297961       -2.1112067167       -5.1213198366
  S        14.7544079051        2.0155030100       -7.4984263056
  C        14.0754676924       -0.9648819730       -7.6282205183
  H        14.1511378139       -2.0534786770       -7.5270262539
  H        14.8454978799       -0.5695535501       -8.3116631713
  C        12.7146263465       -0.8488829614       -8.4365874191
  H        12.4125861774        0.1463010409       -8.4645014680
  H        12.0009866067       -1.3551000939       -7.8441688233
  H        12.7569309927       -1.4931652030       -9.3829985530
