352
 i =   130900, time =    65450.000, E =       100.2328572305
  H        10.4970141425        5.2041028071       30.7297138474
  C        11.3146923318        5.8305225733       30.8963160447
  H        11.0735936938        6.8239845867       30.5470200959
  C        12.5675142405        5.3838410912       30.1812248963
  C        11.5292653149        6.0744969937       32.4429058389
  C        12.2585905110        4.4217638384       29.0457634726
  H        13.0818011522        6.2623507213       29.8470321551
  H        13.3700244002        4.9249627156       30.7959950355
  H        11.6846728895        5.1208164800       32.9036830455
  H        12.4074696802        6.6108223130       32.6022068828
  H        10.7671667860        6.5824162857       33.0253902820
  C        12.2246667198        5.0292867151       27.6637852137
  H        11.3074531728        3.9380143228       29.1586093131
  H        13.0091597572        3.7563026910       29.0779937261
  C        11.0263804926        5.8965783012       27.3221224620
  H        13.1179410908        5.5745414204       27.5410800736
  H        12.2629474926        4.1918733342       27.0439827452
  C         9.8836500461        5.1027467889       26.7831784506
  H        11.2567888545        6.7250160916       26.6775389436
  H        10.7257102927        6.4069035476       28.2539548943
  C         8.7380398848        5.9966883308       26.2489407585
  H        10.2246530128        4.2747839965       26.1191193552
  H         9.4001658008        4.5252410218       27.5864431155
  C         7.5786532509        5.2601014490       25.5545859453
  H         8.2167445639        6.5410366385       27.0468656543
  H         9.0347957137        6.7623248590       25.4976361400
  C         7.2861364799        3.9381065942       26.3003286287
  C         7.9944507674        4.5842715687       24.3075914231
  C         6.2700812464        6.1116170752       25.3709278170
  C         7.3493745804        2.8601116903       25.4404498331
  C         6.7324704246        3.5583777016       27.6011966147
  C         7.7762753468        3.2664251542       24.2047205771
  C         8.4333695252        5.1632227290       23.0946638681
  H         6.4702266729        6.8718831145       24.6801354811
  H         5.9630811894        6.7009643611       26.2673825637
  C         5.1031902990        5.2469315758       24.7775369928
  S         6.9170782397        1.3507559389       26.1330794909
  C         6.5258220789        2.1823132030       27.6861436164
  H         6.5818710627        4.3603055451       28.2829409294
  C         8.1023791234        2.6074608053       23.0430912368
  H         8.5634861461        6.2293138203       23.0438591707
  C         8.6852012672        4.5107460165       21.9268530650
  H         5.4596800086        4.8748197332       23.8258541192
  H         4.7427528831        4.4549013815       25.4133133131
  C         3.8439949485        6.1827859247       24.5626243687
  C         5.9167861964        1.4285147188       28.8827945024
  C         8.5478329454        3.1847971339       21.7741268604
  H         8.0557451965        1.5653306280       23.0645654319
  C         9.1185616919        4.8675607785       20.6776917069
  H         3.2398570085        5.5678777277       23.8978861715
  H         4.1727223096        7.0546648654       23.9831548084
  C         3.0641057940        6.5157132578       25.8653993072
  C         5.8205975293        0.0504386907       28.9465741424
  C         5.4275530115        2.1420579072       30.0423252213
  C         8.9600449526        2.4157125007       20.5411998636
  C         9.2140064637        3.8048626867       19.8674010708
  S         9.3435101589        6.4289255360       19.9845232110
  H         2.3304610345        7.2673659711       25.6763651077
  H         3.7391547000        6.9172078260       26.7078897111
  C         2.3560733396        5.2441884214       26.3431456196
  N         6.1552664133       -0.8411355315       27.9139774722
  C         5.5412641038       -0.6762854284       30.1201356221
  C         5.1528112072        1.5097674209       31.2700291322
  H         5.4336335060        3.2140890262       30.0937964891
  C         7.9532589208        1.4737146529       19.8905771165
  C        10.3106458159        1.7049519361       20.8544810139
  C         9.5429970937        4.2714035430       18.5934487664
  C         9.5819849511        5.6135326593       18.5110909727
  H         1.7744126198        4.8429985811       25.5056094387
  H         3.1118650536        4.4869081984       26.6081905439
  C         1.3981602953        5.4869310919       27.4680705702
  S         5.9952539949       -2.3423071239       28.4058720853
  N         5.6094152202       -2.0254772766       29.9504629009
  C         5.2806521727       -0.0048261723       31.3422014167
  H         4.9383865933        2.0712527628       32.1088986844
  H         7.7356301527        0.6004599289       20.4877860570
  H         8.3196095463        1.1562028941       18.9389652130
  C         6.6150924619        2.2410376180       19.5871271431
  H        10.6334475237        1.1215432404       20.0260133752
  H        10.1701517620        0.9830096579       21.6460986258
  C        11.5352250616        2.5734186041       21.1923305255
  H         9.7185834272        3.5703244766       17.8734835971
  C        10.0427162372        6.4358310875       17.3075453561
  H         0.8290156563        4.5661930092       27.5489470116
  H         0.6491783558        6.1993983988       27.0446427495
  C         2.0154766860        5.9053780562       28.7659250560
  C         5.1331392382       -0.8299573817       32.5073895521
  H         6.6968932908        3.3415347101       19.5200390181
  H         6.0490410636        2.1478325386       20.5699696965
  C         5.8007166361        1.7270093032       18.4091568149
  H        11.3344473280        3.3674790348       21.9406401871
  H        11.8614959933        3.1888004663       20.3292459971
  C        12.7242454749        1.7439108853       21.5939277629
  C        10.1051988042        7.8416975755       17.1939797986
  C        10.1190554697        5.7118488174       16.0064734281
  H         2.6401988785        6.7070631203       28.7100456085
  H         1.3133616657        6.2690070190       29.4455296685
  C         2.6740071643        4.7184583870       29.4350162226
  H         5.2396214851       -1.8729844176       32.3351799446
  C         4.8136240366       -0.5012745096       33.7890760893
  H         5.8201649211        0.6900009580       18.5107757108
  H         6.3181991910        1.9090879984       17.4034498635
  C         4.4377402625        2.3163578864       18.3108217700
  H        12.3942042523        1.2668624170       22.5364305420
  H        12.7830566236        0.9649463474       20.8561811654
  C        14.0165211451        2.5557189366       21.7580292683
  N         9.7461361576        8.7044814139       18.1753290577
  C        10.3372574337        8.5085952665       15.9579214716
  C        10.5940188918        6.3984907519       14.8646244854
  H        10.0883130010        4.5941092919       16.0242301352
  H         2.0398760985        4.3860758529       30.2491136128
  H         2.9207035877        3.8774174020       28.7820880330
  H         3.6442635155        5.0497412500       29.8500756755
  S         4.4065401653        0.9955512654       34.4401024418
  C         4.7683686634       -1.6054824497       34.8774701196
  H         4.4339403126        3.1901395416       19.0152832597
  H         4.2741778190        2.8727800069       17.3639195134
  C         3.3896585495        1.3083024619       18.6008256507
  H        14.0189408282        2.8930716729       22.7424454348
  H        14.1069141921        3.3917245335       21.1137618349
  C        15.2993742930        1.6670820454       21.6004145466
  S         9.8357564067       10.2357955074       17.6181357630
  N        10.3614765969        9.9101628074       16.0992683303
  C        10.6282488929        7.8771532151       14.7634224562
  H        10.5798927346        5.8148257783       13.9171891726
  C         4.3908586180        0.2805988112       36.0676434590
  N         4.5486788176       -1.0306015791       36.0737033031
  O         4.9316049289       -2.7459294084       34.6649728294
  H         2.5257357831        1.8442327944       19.1573297590
  H         3.7283809638        0.6170994653       19.3091947009
  C         2.9677501941        0.6084781370       17.3639991542
  H        15.4459475977        0.9828353507       22.3399173498
  H        15.3471811563        1.1348097167       20.5974863260
  C        16.5095775736        2.5823596107       21.6964785191
  C        10.9149582762        8.6304248662       13.5985403488
  S         3.8319023215        1.0376782654       37.5528360806
  C         4.7031693374       -1.8118201110       37.3479010913
  H         2.4780974222        1.3039653235       16.7323306301
  H         3.8016492323        0.1587546220       16.8679841779
  C         2.0403297025       -0.5788592220       17.6523731867
  H        16.2824771768        3.5496267214       22.0451333661
  H        16.9297953011        2.8187060218       20.7008312160
  C        17.5803243642        2.1249002846       22.7922205122
  H        10.4503562599        9.6061900231       13.6126999505
  C        11.3991241050        8.2805701133       12.3721766765
  H         4.3896488370       -1.3152435053       38.2889499081
  H         4.0706148737       -2.7372111586       37.3221122935
  C         6.1939770140       -1.9553729897       37.5123216393
  H         1.0937321607       -0.2529161424       17.9655114676
  H         2.4236835026       -1.2138850217       18.3558473737
  C         1.8506019662       -1.2790283384       16.3601415116
  H        17.8801318088        1.0717208325       22.6149617409
  H        18.5246288340        2.7688423029       22.6678473789
  C        17.1121853031        2.2970610516       24.1269145201
  S        11.8844562630        6.7595923079       11.7705391091
  C        11.5691894364        9.4380031128       11.4509583791
  H         6.8273587386       -1.8232566244       36.6341641831
  H         6.5612015090       -1.3251305785       38.3404166385
  H         6.3380070498       -2.9463715832       37.8899251614
  H         1.5882783233       -0.5893585418       15.5935138548
  H         1.0410880779       -2.0618272103       16.3925116515
  H         2.8685684091       -1.7399688844       16.1254872212
  H        16.1717461865        2.9403836348       24.1902277537
  H        17.8352782260        2.8236805719       24.8294432102
  H        17.0426657042        1.3284580023       24.6122896000
  C        12.3435652473        7.6313134598       10.3218370594
  N        12.2365339501        8.9973236173       10.3513596770
  O        11.2973020654       10.6289577027       11.7434691721
  S        12.7584698627        6.8561042556        8.7737407710
  C        12.4250471105        9.8737136417        9.2188430862
  H        12.5398516992       10.8837727459        9.5395942240
  H        13.2871023416        9.5347311248        8.6414674477
  C        11.2056728670        9.9404660244        8.2972140773
  H        11.3067942466       10.8888116508        7.8024476535
  H        11.2740327942        9.2158774847        7.5275217028
  H        10.2726321177        9.7539973054        8.8678051148
  H         4.6957718330        1.7589425609       12.0642296239
  C         3.9425350655        2.5842709077       12.2988780453
  H         4.4890162816        3.5661709081       12.3243427786
  C         3.0749903723        2.5162195681       11.0788343678
  C         3.2067029652        2.3273484008       13.6062414073
  C         3.8719438770        2.7157848261        9.7880169264
  H         2.1938024335        3.1406829425       11.0963823470
  H         2.6775250724        1.5316777315       11.1886953911
  H         3.8796380603        1.7592353838       14.3549461346
  H         2.3413326967        1.6659419861       13.4599662166
  H         2.9011764339        3.2483242576       14.0408200239
  C         4.5940513830        1.4378260240        9.1759448383
  H         3.1752293742        3.2715265136        9.1442728709
  H         4.5762942502        3.5091776902       10.0166749480
  C         5.5616807385        1.6114250584        7.9806463251
  H         3.8016834384        0.7579499368        8.8192952604
  H         5.1632079907        1.1051098246       10.0263292650
  C         6.8018095217        2.5262591307        8.1399014060
  H         4.9786090995        1.8757212198        7.1436633448
  H         5.7570575747        0.6180666162        7.6441093330
  C         7.9709484317        1.8327940343        8.8195801165
  H         7.1510046296        2.8277526769        7.1797501487
  H         6.4181330539        3.4024100782        8.7585443960
  C         9.1225002909        2.8267711674        9.0764297700
  H         8.4879010905        0.9481228602        8.3516071739
  H         7.5840255143        1.3810487897        9.7395947669
  C         8.7213077546        4.1797596829        9.7315253920
  C         9.5941331187        3.5219782608        7.8008436223
  C        10.2791525410        2.1037428371        9.8840590079
  C         8.9792459161        5.2884253506        8.9526988594
  C         8.3085213601        4.5238302188       11.0399256307
  C         9.4965444030        4.8865757656        7.7428966169
  C        10.1265850417        2.9502015211        6.6284924598
  H         9.8736380533        1.7442966235       10.8494751888
  H        10.3837800035        1.1412299121        9.3964188378
  C        11.4809989115        3.0156833151       10.0665432043
  S         8.5118541569        6.7914843800        9.6801211685
  C         8.0627005560        5.8797317146       11.1437286657
  H         8.0928447311        3.8355780108       11.7664521418
  C         9.8823619947        5.5294932178        6.5894733084
  H        10.1639479288        1.8934871345        6.7261461918
  C        10.4918338665        3.5675027291        5.4978968975
  H        11.1276884219        4.0548339131       10.2143247582
  H        12.1077298465        3.0042901958        9.1701058303
  C        12.0892106096        2.5785301011       11.4617311572
  C         7.4707078172        6.5611230537       12.3841386491
  C        10.3570936850        4.9331139632        5.4509930064
  H         9.8688481575        6.5923370868        6.5733787987
  C        10.9423539038        3.1630497909        4.2269634855
  H        13.1315634092        2.7839497628       11.4601894159
  H        12.0536279291        1.4178613809       11.5574998190
  C        11.3935008000        3.1560547481       12.6699638749
  C         7.4280389682        7.9100026282       12.6759322354
  C         7.1089602855        5.6753325836       13.5003111713
  C        10.7457485380        5.6580984591        4.2324231730
  C        11.0046585526        4.3203132845        3.4150165899
  S        11.1265576187        1.7167030105        3.4551187335
  H        11.9676185486        4.0672814364       12.9143632038
  H        10.4347867032        3.5921173139       12.3903891416
  C        11.1671193587        2.2515918260       13.9500127772
  N         7.6869322205        8.9540238115       11.7362894055
  C         7.2687918528        8.3815768114       13.9499431526
  C         6.8889121746        6.1331912007       14.8279575662
  H         7.0662117066        4.6555293322       13.2735950537
  C        12.0170123716        6.4231236565        4.4773181668
  C         9.5605826158        6.4729767834        3.5756521930
  C        11.3435627966        3.9636633872        2.1182545374
  C        11.4263621978        2.6140652580        1.9542381435
  H        11.1957817552        1.2745968912       13.6005491182
  H        10.1700723824        2.3878533221       14.3561455102
  C        12.1738764646        2.3440560450       15.1325824564
  S         7.4384898018       10.3910124048       12.4678516678
  N         7.2612128189        9.7882627219       14.0196556031
  C         7.0007888795        7.5911219952       15.1058740279
  H         6.6291013540        5.4266855142       15.6382545793
  H        11.7413412704        7.2447005909        5.1072357642
  H        12.1064976757        6.8986763378        3.4631699221
  C        13.1921965111        5.5776991218        4.9939899005
  H         9.1770330182        7.2794388633        4.2682030096
  H         9.9752223481        6.9351764245        2.6936326923
  C         8.4067892143        5.5179125618        3.2266045836
  H        11.3837171386        4.7141706499        1.3125133945
  C        11.7000819454        1.8965075091        0.6202578610
  H        13.2008688348        2.2858615376       14.7619469108
  H        12.1075089250        3.3440063457       15.5003608522
  C        11.9909225509        1.3776745348       16.3612773278
  C         6.9286549825        8.2438724787       16.3800496839
  H        12.9054403114        5.1052248125        5.9389136781
  H        13.4082745965        4.7809174078        4.2817913341
  C        14.4654200842        6.4131785388        5.2576089233
  H         8.1900337742        4.7732836171        4.0033453884
  H         8.6342806254        4.8675170499        2.2985813494
  C         7.1067877004        6.3111577555        2.9476112995
  C        11.9485885421        0.4860063272        0.6130784551
  C        11.8686897359        2.5858347180       -0.6619945581
  H        11.9803567783        0.2965847386       16.0056021122
  H        10.9874522575        1.5340106328       16.7736785902
  C        13.1539779230        1.6990324656       17.3397002657
  H         6.9066434157        9.3216416652       16.3255792739
  C         6.5615075940        7.8092480305       17.6538817772
  H        14.3645965492        7.1100838777        6.0850656144
  H        14.8075863350        6.9183723311        4.3268475853
  C        15.6342975628        5.4416728969        5.5855948373
  H         7.0303399271        7.0002397106        3.7436393525
  H         7.1221456869        6.8992497778        1.9877675641
  C         5.9114008238        5.3208532419        2.8887930973
  N        11.7590161544       -0.3821028501        1.6414724671
  C        12.2784377607       -0.1491627291       -0.5180049778
  C        12.2886499511        1.9310113096       -1.7907809395
  H        11.6729194171        3.6874896026       -0.6830178825
  H        13.0980177165        2.7594615022       17.7415581489
  H        14.1497332761        1.7836635963       16.8172156349
  H        13.2735291662        1.1613798888       18.2938712586
  S         6.3294344659        6.1987860646       18.0482913207
  C         6.5041938819        8.7174170069       18.8163486133
  H        15.2275602472        4.5601123674        6.0310375233
  H        16.1982038263        5.1721756001        4.7220125404
  C        16.6080989786        6.0658505394        6.5677930056
  H         5.5137596103        5.1273684032        3.8465155750
  H         6.2610605008        4.3683413409        2.5625866731
  C         4.7452125213        5.7798492562        2.0283932064
  S        12.0002684360       -1.9068201960        1.1496419072
  N        12.3562235606       -1.5092711780       -0.3900301922
  C        12.3878916492        0.4509168484       -1.7991718560
  H        12.4195314083        2.5765927446       -2.6964519142
  C         6.1799358426        6.6777098733       19.6976520844
  N         6.1660325397        8.0361575375       19.8766694560
  O         6.6504687091        9.9600740518       18.6393424072
  H        16.9603435872        7.0370185727        6.1599281108
  H        16.0812890674        6.4553667748        7.4362907403
  C        17.6923086482        5.0966079684        7.0978998742
  H         4.9025262660        5.8188548117        0.9229189613
  H         3.8875227257        5.1009530447        2.1994659798
  C         4.2398734573        7.2045622964        2.4739840490
  C        12.6262661372       -0.3260389328       -2.9731397096
  S         5.9277500800        5.7175237127       21.1336324770
  C         5.8758366689        8.7562235771       21.1238800666
  H        17.3961604432        4.8055784475        8.0279281330
  H        17.8560950492        4.1907785517        6.5083692852
  C        19.0344578630        5.8868091211        7.2217725597
  H         4.5760140426        7.4649485670        3.4421925311
  H         3.1653314438        7.0955143391        2.4512411341
  C         4.7602977046        8.4101262680        1.5543272499
  H        12.2556957404       -1.3607415328       -2.9468161381
  C        13.1333732512       -0.0825925065       -4.1595248584
  H         4.9601589229        8.4298028632       21.5832099538
  H         5.7395894915        9.8766333363       20.9085946857
  C         7.0522391083        8.7298278817       22.0794388065
  H        19.5658281790        5.3679040744        8.0514956629
  H        18.8906265972        6.9951115198        7.3227011060
  C        20.0221045944        5.6569118893        6.0616577597
  H         5.6913952818        8.7492272889        2.0344642787
  H         4.9658993631        8.1449818901        0.5714625084
  C         3.7766714096        9.6239913629        1.5871146228
  S        13.8843095888        1.3859678127       -4.6873646819
  C        13.1534606503       -1.2266436965       -5.1495226448
  H         6.7492337717        8.4237539157       23.0691748380
  H         7.4806770062        9.7404002344       22.1691454753
  H         7.9060039947        8.0268820183       21.7848761568
  H        20.3811814024        4.5921002038        5.9422170094
  H        19.5112842181        5.9225492679        5.1801356891
  H        20.9320108299        6.2550390505        6.3030616904
  H         3.3217958809        9.7822679253        2.6420116241
  H         4.4100705171       10.4246169268        1.2483112403
  H         3.0566140687        9.5253799569        0.8331833852
  C        14.1009393409        0.5996023203       -6.2036075469
  N        13.6709390211       -0.6837270655       -6.3012008643
  O        12.7094075564       -2.3428109230       -5.0354562038
  S        14.4419538427        1.3662838686       -7.7712313808
  C        13.7519665601       -1.5440001650       -7.4980486853
  H        13.7429112718       -2.5976141010       -7.3111214757
  H        14.6738514692       -1.3654660407       -7.9338686124
  C        12.6294011999       -1.2124922425       -8.4866992415
  H        11.6570426424       -0.8471593403       -8.1246289090
  H        12.4761877790       -2.2566881820       -8.7438714857
  H        12.9281766798       -0.6134168436       -9.3204841617
