352
 i =   116600, time =    58300.000, E =       100.0802379551
  H         9.3515685317        5.4958856337       32.1944801804
  C        10.3690411197        5.7271792643       32.4320630936
  H        10.6267509694        6.7745304236       32.5938220648
  C        11.2254406561        5.3206533474       31.2700672770
  C        10.6190009451        5.0980361571       33.7719596567
  C        11.0448336267        5.9010207680       29.8440503918
  H        12.2859669766        5.5766509935       31.4385756467
  H        11.1919419406        4.2715152354       31.2540897774
  H         9.8417846787        4.4541843743       34.0965674938
  H        11.4887033265        4.3843253716       33.7531777926
  H        10.7787933715        5.7942006804       34.5388113752
  C        10.0559123903        5.1451954271       28.9631964160
  H        12.0418310435        5.8864435600       29.4113138163
  H        10.6489691080        6.9023750605       29.9836824370
  C        10.2164039983        5.3227730040       27.4071834078
  H        10.1679220242        4.0540266130       29.0846443666
  H         9.0702658166        5.4920594950       29.2255357967
  C         9.1322202831        4.5697745359       26.6305030688
  H        11.1473955683        4.9408757074       26.9614891669
  H        10.2745098242        6.3349266487       27.1501689012
  C         8.0784703033        5.6033899050       26.4412130500
  H         9.5671601366        4.2239151718       25.7312186371
  H         8.9389228962        3.7580742776       27.3389108789
  C         6.8465797717        4.9923624477       25.7544488961
  H         7.9167733604        6.0329933615       27.4228072770
  H         8.5889851901        6.3380647172       25.8529969057
  C         6.3759860273        3.6475003908       26.3890037472
  C         7.3500702814        4.3344491161       24.4431234631
  C         5.6628643023        6.0149277708       25.5841616388
  C         6.5477429114        2.6130006341       25.5481575551
  C         5.9103267219        3.2213065355       27.6472467296
  C         7.1375274919        2.9744126479       24.3742951606
  C         7.8240262070        4.9791172036       23.3107428217
  H         5.9915203870        7.0090682815       25.2004730132
  H         5.2252630143        6.3365718243       26.5413028462
  C         4.4888384235        5.5583647056       24.6659771210
  S         6.0042724784        1.0997774556       26.2069413064
  C         5.7060398653        1.8743371446       27.6751628392
  H         5.7959900985        4.0234771509       28.4347753288
  C         7.5479020807        2.3908390915       23.2485042014
  H         7.9426930879        6.0933239670       23.2737255066
  C         8.1455976695        4.3974367292       22.1117308494
  H         4.7554701944        5.3935770260       23.6157744114
  H         4.1655854402        4.5721996315       24.8593377788
  C         3.2726882712        6.5029836982       24.7297590233
  C         5.4542230339        1.0936950903       28.9351525319
  C         8.0890251735        3.0086645265       22.0435053077
  H         7.4393665498        1.3119099052       23.1387333915
  C         8.5703041006        4.8539891323       20.8855344082
  H         2.5674879417        6.2203026811       23.9722125485
  H         3.5562301193        7.5138389719       24.6196982014
  C         2.4736405449        6.4616321563       26.0325221590
  C         5.5000762023       -0.3291538262       29.1485512748
  C         5.0651661421        1.8491557219       30.1521131836
  C         8.5480080364        2.4160581780       20.7416031585
  C         8.7726309344        3.7982562026       19.9918344904
  S         8.8073697010        6.4100742960       20.2963243978
  H         1.5208230716        7.0976019166       26.0246221137
  H         3.0302068017        6.8919748926       26.8217787029
  C         1.9172827537        5.0722467600       26.4085014418
  N         5.8727615650       -1.2695359024       28.1747376952
  C         5.2468111569       -0.8937220996       30.3690948510
  C         4.7478223603        1.2935564735       31.4005862609
  H         4.8560846737        2.9276144256       30.0439597653
  C         7.4941082557        1.5190839314       19.9922446625
  C         9.9604263227        1.6309779412       21.1539664717
  C         9.1885733835        4.3706761190       18.7766396938
  C         9.3147526416        5.7312725903       18.7772381794
  H         1.4067068801        4.7087919563       25.5883667102
  H         2.6521688707        4.3470698849       26.6693986443
  C         0.9584566722        5.1251559070       27.6425637889
  S         5.9233587316       -2.7303312894       28.8195284065
  N         5.3956598844       -2.3234718676       30.3209915902
  C         4.9391573587       -0.1631048750       31.5504253426
  H         4.3231357651        1.8524890276       32.1838718490
  H         7.2837935310        0.5868042291       20.6436879396
  H         7.9198347933        1.2329589357       19.0700494653
  C         6.1987030537        2.2689213830       19.6775914862
  H        10.4712008961        1.2180379076       20.3066944684
  H         9.6615776932        0.8130166966       21.7338627371
  C        11.0636002534        2.4725280887       21.6873995239
  H         9.4096769714        3.7203347147       17.9751826743
  C         9.6392611249        6.4901350036       17.5108519421
  H         0.5395266336        4.1850776694       27.9003173579
  H         0.1180313271        5.7202520837       27.3926512386
  C         1.6154589257        5.7251018859       28.8736675706
  C         4.6687554535       -0.8587756094       32.8054356332
  H         6.5120411372        3.0992393733       19.0577122475
  H         5.7101409796        2.8578997775       20.5054416022
  C         5.0994259473        1.4429900318       19.0346531635
  H        10.8875473804        3.1075492490       22.5484288064
  H        11.2050849487        3.1463636914       20.8178935321
  C        12.3662076066        1.6426391904       21.9352441794
  C         9.7256382076        7.9431072437       17.4422857354
  C         9.9479591266        5.7353940192       16.2572167078
  H         1.7411478291        6.8088803483       28.6869888837
  H         1.0134917941        5.7440432412       29.8266473981
  C         2.9748122870        5.2067374074       29.3117146167
  H         4.7972489136       -1.9355390505       32.7068066644
  C         4.3255162678       -0.4413786325       34.1093025140
  H         4.3501446918        1.2750901773       19.8304977827
  H         5.4716802871        0.4614922512       18.9178114341
  C         4.4758061369        2.0884167962       17.7862769207
  H        12.1849376730        0.8612919132       22.6748572915
  H        12.6825175197        1.1192392431       21.0508215332
  C        13.5204297629        2.5346098728       22.4491238773
  N         9.3989983978        8.8900995912       18.4125157502
  C        10.0009242790        8.5805547926       16.2158118839
  C        10.1655886993        6.4333343246       15.0622752430
  H        10.0049232589        4.6791545436       16.1752902585
  H         3.3473219099        5.7901972971       30.1750122067
  H         2.9306180355        4.1003136508       29.4863446364
  H         3.7958913772        5.5000641117       28.7015166765
  S         4.0092487025        1.1369379120       34.6518468692
  C         4.2242103240       -1.4981043891       35.1035584836
  H         4.2757644119        3.1647001674       18.0252313179
  H         5.2210178540        2.0376851690       16.9557601872
  C         3.0839192895        1.4633422109       17.3852555349
  H        13.4068055592        2.9105307382       23.4387859140
  H        13.6158758232        3.3515583562       21.7773923757
  C        14.8988998718        1.7447816155       22.4215733666
  S         9.6336104637       10.3415167999       17.7837542946
  N        10.1267726777        9.9622570309       16.2856794788
  C        10.2409567372        7.9081175861       14.9974853692
  H        10.2924965450        5.8486511164       14.1621739682
  C         3.7733045958        0.3227395615       36.2598379117
  N         3.9363028177       -1.0156476235       36.2799251743
  O         4.3910728960       -2.7055700376       34.8434571224
  H         2.8596780079        1.8356208378       16.3517024118
  H         2.3172180436        1.8863768391       18.0598478475
  C         3.0497191962       -0.0333092169       17.5372474397
  H        15.4547277327        2.1219965875       23.3184476580
  H        14.8056413415        0.6857564328       22.6089487011
  C        15.7713371949        2.1056902555       21.2676957466
  C        10.5934361116        8.6813413165       13.8628211267
  S         3.5223330220        1.0968129261       37.7860530276
  C         3.8902319174       -1.7942933718       37.5788369977
  H         2.6267282920       -0.4163515449       16.6779823302
  H         4.0491765673       -0.4382762084       17.5827561544
  C         2.1567444742       -0.6011731219       18.5938984684
  H        16.0582632695        3.1743746338       21.3418934678
  H        15.2800103968        2.0678948525       20.3202804072
  C        17.0735064068        1.2858625434       21.1443149331
  H        10.3957846544        9.7485324218       13.8348068150
  C        11.0830587507        8.2862909812       12.6570170024
  H         3.1400540753       -1.4270993387       38.2827718526
  H         3.6026844276       -2.8012779376       37.3686104820
  C         5.3832343096       -1.8421547956       38.1405980414
  H         1.0956518528       -0.3290056253       18.3351046327
  H         2.3790231114       -0.1265046720       19.5546723755
  C         2.2687976826       -2.1184023033       18.6822645172
  H        16.8185884229        0.2064783491       21.1851147245
  H        17.4887114218        1.4293669329       20.1402627078
  C        18.1174331148        1.5584515007       22.1986400204
  S        11.5443989291        6.6481322578       12.1037945418
  C        11.3505836688        9.3537946511       11.6574944804
  H         5.5282659501       -1.1631998670       39.0489968667
  H         5.7195118543       -2.7729820483       38.4782404968
  H         6.1529822305       -1.4580042074       37.4159119262
  H         1.4115014558       -2.4221596983       19.2672721074
  H         3.1351952224       -2.5592855367       19.2046958068
  H         2.2443702980       -2.6247234245       17.6817130106
  H        17.8011014032        1.6156417841       23.2411164355
  H        18.5395194175        2.5149291318       21.9906394164
  H        18.9817972156        0.8259379071       22.1566125930
  C        12.1567956751        7.4590788860       10.6497337045
  N        11.9585109638        8.7600219970       10.5698372979
  O        10.9294972581       10.4936784234       11.5964294264
  S        12.9133274419        6.6519474404        9.2767442879
  C        12.1078472654        9.4585775562        9.2432465672
  H        12.1565142084       10.5185852415        9.4307446509
  H        13.0961175748        9.1995420786        8.8072396620
  C        10.9743915964        9.1348315329        8.3586186798
  H         9.9609182230        9.3484568652        8.7139919735
  H        11.1332740574        9.8256624293        7.4680022355
  H        10.9807889526        8.0779728584        8.0818345220
  H         2.4431368561        3.0193787196       12.6492762952
  C         2.7663044492        2.0046543695       12.4206017614
  H         2.1835883954        1.4318562093       13.1131485766
  C         2.4009038388        1.5943392116       10.9992499998
  C         4.1938979609        1.8605807617       12.9206819851
  C         3.5076724789        1.8814773300       10.0497237475
  H         1.4614491131        2.0374754107       10.6450650466
  H         2.2108781724        0.6049626344       10.8963982336
  H         4.5937358110        0.9780612422       12.6555921297
  H         4.3450590767        1.8107811039       14.0120868551
  H         4.8266654182        2.6437600081       12.4633125271
  C         4.5340019386        0.7885009657        9.7347648461
  H         3.0789757658        1.9826366953        9.0490558276
  H         4.1039397497        2.8087263003       10.2285641365
  C         5.3925985514        1.0673514668        8.4576421368
  H         3.9442967533       -0.1001512859        9.7623823172
  H         5.1277667546        0.6900068541       10.5754290423
  C         6.4952775882        2.1054837599        8.6428695702
  H         4.7770043686        1.3768984542        7.6024160664
  H         5.8699349791        0.1892891765        8.0424506014
  C         7.8165714053        1.6239563570        9.1244828245
  H         6.6068097096        2.7082661519        7.7889246710
  H         6.2157237953        2.7751444302        9.4619148274
  C         8.8288689701        2.7581854247        9.3072641070
  H         8.2706911401        0.8981214684        8.5190027108
  H         7.7529819882        1.2542643355       10.1597629141
  C         8.3838199224        4.1020297603        9.9469233362
  C         9.3117191439        3.4682267174        8.0909901547
  C        10.0441278938        2.1803522807       10.0561709956
  C         8.5575551084        5.2005163404        9.1085765113
  C         7.8781603377        4.4855214106       11.2409096682
  C         9.1600571617        4.8287522207        7.9091495461
  C         9.8626022955        2.9189132291        6.9370832165
  H         9.7005405631        1.7305710039       11.0177274428
  H        10.3457006844        1.3428172392        9.4338658638
  C        11.3417883172        3.0663627138       10.2918183572
  S         8.1314469917        6.6767332291        9.7969959337
  C         7.6539718993        5.8499337181       11.2377233549
  H         7.6010971992        3.7416291805       12.0076108095
  C         9.5667065383        5.4621158985        6.7860557992
  H        10.1430043130        1.8635007870        6.9913167366
  C        10.2008030665        3.5709553974        5.7855491263
  H        11.0683765954        4.1162799831       10.3344029339
  H        11.9898932821        2.9717558790        9.3895469408
  C        12.1996710755        2.6009200934       11.4740339617
  C         7.2941304070        6.5398983093       12.5196391400
  C        10.1014991342        4.8954292471        5.6393245141
  H         9.3502939433        6.5205406007        6.7610494033
  C        10.7260851797        3.1196509837        4.5984293949
  H        13.1868920465        3.1107248453       11.3770869373
  H        12.3114098438        1.5309385559       11.3554397802
  C        11.6415946266        3.0180680388       12.8014466864
  C         7.3405454625        7.9488255166       12.7713111388
  C         6.8277608139        5.7555666284       13.6595631030
  C        10.5962490646        5.6057183886        4.4549048565
  C        10.9468615309        4.1941914339        3.7549564301
  S        11.0267079982        1.5962220020        3.9281422313
  H        12.2286541243        3.9120763640       13.0866055056
  H        10.6636033281        3.3783539325       12.8050870118
  C        11.7065522706        1.9056644447       13.8313861345
  N         7.7200431361        8.8921136889       11.8276556904
  C         6.8976735008        8.5281391113       13.9549925755
  C         6.6812270646        6.3416003758       14.9146169834
  H         6.5393111295        4.7534117486       13.4633609793
  C        11.8655998781        6.4584619353        4.7708794121
  C         9.4535442847        6.3281201896        3.6797534324
  C        11.3977102950        3.7300912319        2.4853202030
  C        11.4376159413        2.3628583259        2.4811705137
  H        12.7305853647        1.5054587854       13.8451748521
  H        11.1024075584        1.1251304285       13.5431977331
  C        11.3675645080        2.3494707164       15.2638339968
  S         7.6087337236       10.3895376790       12.4613710236
  N         7.0112481884        9.9187417954       13.9528778422
  C         6.5745190565        7.8034610717       15.0789272962
  H         6.4161960813        5.6428399780       15.7308215782
  H        11.6376190461        7.3178745048        5.4034002492
  H        12.2923756630        6.8297513984        3.8285092843
  C        12.9662799889        5.6666101569        5.4335231553
  H         8.8985967494        7.0556058297        4.2585086368
  H         9.8760341717        6.8754648030        2.8322371228
  C         8.3191673917        5.2851748324        3.2294656011
  H        11.5961996866        4.4573969510        1.7575987362
  C        11.7899569107        1.6134178013        1.2153766085
  H        11.3106366519        3.4707693765       15.2339511269
  H        10.5361133861        1.8649937818       15.8465397988
  C        12.6114874632        1.9701746867       16.0701889280
  C         6.2207775868        8.4717640148       16.2989298095
  H        12.7607580522        5.4021738998        6.4512215248
  H        13.0871624950        4.7103152690        4.9294785615
  C        14.3322159874        6.2813938132        5.3754285136
  H         8.0400578954        4.5459886461        4.0245784253
  H         8.7908266601        4.7172809370        2.4231788610
  C         6.9118190714        5.8316092501        2.8140079127
  C        11.8080799640        0.1891382861        1.0797585102
  C        12.0256160105        2.3850582637       -0.0439115218
  H        13.4843752658        2.4993259800       15.6623714714
  H        12.8631094295        0.8885804777       16.1513764405
  C        12.3843648279        2.5056980967       17.5948375845
  H         6.1343883740        9.5692706456       16.2032158593
  C         6.1291904877        7.9415649492       17.5360220099
  H        14.2249706690        7.3809260558        5.5879229627
  H        14.6145245683        6.2036132145        4.2864599236
  C        15.3775586406        5.5849340539        6.2131518067
  H         6.2349014380        5.0283194741        2.7837028649
  H         6.5735560775        6.4846362191        3.6326453083
  C         6.8765145680        6.6883493107        1.5815657749
  N        11.4837959860       -0.8060941999        2.0117362187
  C        12.0496866288       -0.3729912025       -0.1867865293
  C        12.3393922266        1.8449175075       -1.2680444512
  H        11.9792008191        3.4388170241       -0.0591461389
  H        13.1597643364        2.3466124144       18.2939248612
  H        11.5104923349        1.9881880567       17.8899450219
  H        12.1505493063        3.5381503072       17.6375550638
  S         5.9680361120        6.3186565981       18.0936951685
  C         5.9251817084        8.9722624034       18.6508370367
  H        15.4816146887        5.9787213465        7.2164924961
  H        15.0263360492        4.6037260493        6.3385305008
  C        16.7944044091        5.3845210209        5.4312435703
  H         7.4058021597        6.1781533550        0.7666472940
  H         7.4817482657        7.5951305449        1.7404706290
  C         5.4934171823        7.1844292999        0.9826762317
  S        11.4939729938       -2.2659025475        1.2543768287
  N        11.8439568694       -1.7523330123       -0.2203815070
  C        12.4389507202        0.3405330048       -1.4068824075
  H        12.4853654375        2.5092303856       -2.0701239001
  C         5.6812963233        6.9772650946       19.7304340779
  N         5.5792221885        8.3059392909       19.7734620472
  O         5.9855473743       10.1992567986       18.4705007731
  H        16.4793545582        4.7819161967        4.5402725522
  H        17.2108434927        6.3396531259        5.1025553608
  C        17.7143406163        4.6068950793        6.3845000844
  H         5.5742698118        7.8443186587        0.1068959609
  H         4.8276263164        6.3656411307        0.7050550205
  C         4.6576207395        8.0000513430        2.0623647956
  C        12.6962437183       -0.3783334002       -2.6602620097
  S         5.3649508514        6.0089078011       21.1479798718
  C         5.3320809786        8.9482196801       21.0534394642
  H        17.2555094350        3.6612672355        6.6152329296
  H        18.5448114557        4.2877863204        5.8206684969
  C        18.1317576678        5.4681490587        7.5896304386
  H         5.2337806170        8.2954802018        2.8599768630
  H         3.9152203126        7.2566461227        2.4475088759
  C         3.8962239646        9.2463585940        1.3955859704
  H        12.1337745957       -1.2942106550       -2.7155024527
  C        13.3128685663       -0.1001104076       -3.8481456978
  H         4.6061780757        8.5313905140       21.7362906163
  H         4.9531088386        9.9766462764       20.8112011490
  C         6.6492411634        9.0764766167       21.7730245661
  H        18.2896273246        4.8230870541        8.4663584824
  H        17.4054340794        6.2033220015        7.8952052996
  C        19.5519598472        6.0398595306        7.1921075559
  H         4.4188732290        9.8109521166        0.6541336274
  H         2.9813659297        8.8070879476        0.9509399395
  C         3.4200114051       10.2413660492        2.4599964303
  S        14.0389914007        1.4532675219       -4.2467939907
  C        13.3005180727       -1.1311410418       -5.0063977321
  H         7.5594843029        8.9983994812       21.1390967254
  H         6.7368489484        8.3183936141       22.4853457322
  H         6.7683625322       10.0766672952       22.2772522913
  H        19.6519694043        6.3847743612        6.1333320605
  H        19.8844915315        6.9168276066        7.8001642431
  H        20.2123697116        5.2266244553        7.1976179178
  H         3.3076254375        9.8099332033        3.4283412544
  H         4.1437032326       11.0452162655        2.4219449040
  H         2.4516381484       10.6333254716        2.0118753468
  C        14.2931006105        0.6924046836       -5.7935204311
  N        13.9819087678       -0.6033180348       -5.9977755562
  O        12.7915917995       -2.2570316495       -4.9306355911
  S        14.9761195729        1.5488152902       -7.1778783558
  C        14.1556366029       -1.2210185601       -7.3558247485
  H        14.2182221121       -2.2799378931       -7.1920409355
  H        15.0858945496       -0.9324940698       -7.7904586315
  C        12.9210635992       -0.8711968941       -8.1490139953
  H        12.1305035180       -1.7338005146       -8.0192755051
  H        13.1079553862       -0.7655655054       -9.2007312620
  H        12.4319630673        0.0897287514       -7.7838618157
