352
 i =   111000, time =    55500.000, E =        98.5033304068
  H        10.4625680417        4.6379646215       31.7156695595
  C        10.8627321845        5.5491695744       32.0923985146
  H         9.9657674516        6.0581173065       32.4357404004
  C        11.4924264024        6.2336931437       30.8957180295
  C        11.8180625886        5.3390304077       33.2563213811
  C        10.4319122374        6.5836744552       29.8671935762
  H        12.0525584887        7.0829257894       31.1911903797
  H        12.1795071443        5.4957517615       30.4301963997
  H        11.8821786541        6.1338458563       33.9121123015
  H        11.4490927106        4.4413207231       33.8666601839
  H        12.7764313236        5.0466413785       32.8096653178
  C        10.0632034368        5.4356566506       28.9221386131
  H        10.7707087813        7.4795486618       29.3526955119
  H         9.5340509649        6.8958622212       30.3496462971
  C        10.4586658315        5.6310221828       27.4241106789
  H        10.5512619184        4.5483224924       29.2706658549
  H         9.0122608681        5.1081424256       28.9152801781
  C         9.4905765618        4.9533415258       26.4257693006
  H        11.4842801936        5.1869197029       27.2831343369
  H        10.4432017989        6.6817915921       27.2221599980
  C         8.2748757033        5.8561677545       26.2016615172
  H        10.0480288298        4.7779729625       25.5430963517
  H         9.2030054651        3.9468321311       26.7542179772
  C         7.1013708408        5.1938136311       25.4166994745
  H         7.9271514552        6.2164066632       27.1971156729
  H         8.5761877952        6.8018566858       25.6460880239
  C         6.7269428946        3.9125456674       26.0635645458
  C         7.5787424383        4.5140151784       24.1416451747
  C         5.9474602799        6.1325266097       25.2307076703
  C         6.9764123953        2.8010601669       25.2356895004
  C         6.1467497080        3.4575139870       27.2346294923
  C         7.5098232448        3.2041138271       24.0331693067
  C         7.9971182876        5.1480535080       23.0169263888
  H         6.3688225953        6.9388770521       24.6779361874
  H         5.7819416297        6.4514661515       26.2713305633
  C         4.8198524055        5.6044826616       24.3684631178
  S         6.6440999794        1.3058989611       25.9468767256
  C         6.1007612460        2.0672888018       27.3998683016
  H         5.9618737034        4.1590419627       27.9666066330
  C         7.8657995702        2.5570388754       22.8580890183
  H         8.0345669250        6.2179623248       22.9930729090
  C         8.3493677945        4.5042232684       21.8460537196
  H         5.1671173430        5.6152378535       23.3177799000
  H         4.5876220499        4.5798217020       24.5147161168
  C         3.5152870065        6.4546011304       24.3654009756
  C         5.7267949885        1.4392427902       28.7178925114
  C         8.3062192204        3.1824697422       21.6943799352
  H         7.9368713726        1.4750319301       22.8081150441
  C         8.8403700164        4.9679125361       20.6671543329
  H         2.7049476942        6.1380083832       23.6267613213
  H         3.8677360187        7.4450033046       24.0997576572
  C         2.8374710937        6.4400510898       25.7428156596
  C         5.7565863799        0.0596321155       29.0476464979
  C         5.3520852562        2.3101471931       29.8583095093
  C         8.7864333224        2.6024378302       20.4096152962
  C         8.9592104696        3.9403139763       19.7505434634
  S         9.1193498063        6.4915781605       19.9257093251
  H         1.9640652244        7.0782780975       25.8059444619
  H         3.3774900590        6.8418861110       26.5753457152
  C         2.3939468533        5.0807769614       26.1536576594
  N         5.9015089617       -0.8986228596       28.1205062805
  C         5.4979196941       -0.4765273131       30.2940573720
  C         5.0820738011        1.7947957094       31.1257095050
  H         5.2610927697        3.3686236034       29.7737918388
  C         7.7842962398        1.7884127460       19.6684236286
  C        10.1310152188        1.8393270618       20.3462614177
  C         9.4401072829        4.3710358052       18.4987896859
  C         9.4479378978        5.7207413844       18.4084656284
  H         1.7992179256        4.5607931939       25.3532977802
  H         3.2435104786        4.4084670391       26.3721535735
  C         1.4261235165        5.1320302821       27.3325788545
  S         5.8312583902       -2.3521426602       28.7795937093
  N         5.6201599827       -1.8331101877       30.3327621361
  C         5.3170367632        0.3427742503       31.4548252833
  H         4.8265291504        2.4744836757       31.9324877964
  H         7.3798220000        1.2099240687       20.4439075691
  H         8.3395065804        1.1341255270       18.9265927510
  C         6.5273305959        2.6611970208       19.2565797522
  H        10.3773554057        1.7019059496       19.3083465940
  H         9.9492673649        0.7897687994       20.7485622291
  C        11.2305894504        2.6662815341       21.0430025154
  H         9.7801077098        3.6670243657       17.7780277866
  C         9.8296791586        6.5507554746       17.2511631308
  H         1.2132957499        4.1205241651       27.6621700329
  H         0.4014078170        5.5521342190       27.0727896167
  C         1.8752248039        5.8360942640       28.5868681260
  C         4.9717501349       -0.3357743141       32.6039320821
  H         6.6671322845        3.4467365925       18.5128385771
  H         6.2416077187        3.2878735469       20.1146599663
  C         5.4435719940        1.6316943152       18.7880710799
  H        10.9561499672        2.8543357991       22.0928774204
  H        11.2769532546        3.6713522150       20.5718078027
  C        12.5825819378        1.8437465150       20.9967546127
  C         9.9283876279        7.9829823261       17.2285296919
  C         9.8168643429        5.8114072199       15.9425347473
  H         1.7200640824        6.8764508948       28.5056924893
  H         1.0321740613        5.5963902312       29.2897951509
  C         3.2705587759        5.4585116302       29.1715561599
  H         4.9337781534       -1.4135889990       32.5723629266
  C         4.7068259109        0.1522713249       33.8510894444
  H         4.9987689598        1.0325316829       19.5431664186
  H         5.8514053929        1.0343928843       18.0140159736
  C         4.1661418205        2.2483073722       18.2191158574
  H        12.4726021161        0.9903928634       21.6952960380
  H        12.7418766738        1.3783624242       19.9907372226
  C        13.8478394660        2.6518811489       21.2577205568
  N         9.6708152579        8.8863821161       18.3033192730
  C        10.1690695443        8.6761032850       16.0316722349
  C        10.3806226247        6.5322487821       14.8869813455
  H         9.4630729620        4.8111134175       15.8141038855
  H         3.2368939658        5.9909664666       30.0854266078
  H         3.4620611805        4.4686850079       29.5304963982
  H         4.1638749119        5.6651919747       28.5088053801
  S         4.3044889310        1.8094446618       34.2990743502
  C         4.4791298742       -0.8315016353       34.8876687645
  H         3.8155369138        3.0250932217       18.8981887533
  H         4.3607979278        2.7743301190       17.2970061493
  C         3.0366259216        1.2381791646       18.0373288809
  H        13.6999947642        3.3329015229       22.0974601753
  H        14.1702304407        3.2695229286       20.3831147370
  C        15.0057022823        1.7319302767       21.6590253444
  S         9.9538139347       10.3776390901       17.7658391216
  N        10.4431151677       10.0122448923       16.2681766665
  C        10.6193294372        8.0482023871       14.8657705967
  H        10.4019934576        6.0524834627       13.9380476295
  C         4.1989856395        1.1386785866       35.9308872519
  N         4.1898855997       -0.2179406050       36.0515329535
  O         4.5879614596       -2.0268413124       34.7725633054
  H         2.1090193968        1.7636349482       17.9445747139
  H         2.9714326020        0.5043532573       18.8589565807
  C         3.2309676233        0.2626452511       16.8705837539
  H        14.9819348165        1.2922314188       22.6692559382
  H        15.0265662709        0.9422988752       20.9813978015
  C        16.3838085337        2.4569650284       21.5374374602
  C        10.9980060759        8.8296418733       13.7700442244
  S         3.8741308727        2.0304057305       37.3789439646
  C         4.1922878389       -0.9465450555       37.2304579108
  H         3.1609818840        0.7858391668       15.8811802438
  H         4.2857802607       -0.1145763479       16.9200112005
  C         2.2062405308       -0.8124379780       16.8953319353
  H        16.1479808228        3.4229996980       21.8943841801
  H        16.5834496142        2.6132458441       20.4957572210
  C        17.4769345576        1.6729369421       22.1384471368
  H        10.7456525511        9.8781761760       13.8797354147
  C        11.4579500202        8.5602930938       12.5236690605
  H         3.4159807529       -0.4273279263       37.8596857324
  H         3.8151034361       -1.9454552631       37.1474962751
  C         5.5931583588       -0.8971890790       37.8804115107
  H         1.5121321373       -0.7486321257       15.9524410062
  H         1.4550978480       -0.5332431890       17.6721172401
  C         2.5435537230       -2.2773705704       17.2649208155
  H        17.4917648164        0.6325401527       21.8058620368
  H        18.4375213784        2.0113167446       21.7187049881
  C        17.5854193501        1.8408439959       23.6582160388
  S        11.8672826719        7.0409883404       11.8606624950
  C        11.5295508851        9.6420812064       11.5523840998
  H         5.5038563362       -1.2808149065       38.8842187309
  H         6.1829305314       -1.6607751660       37.3076429588
  H         6.0733291161        0.0355536928       37.8525953228
  H         1.6532099373       -2.8214649795       17.4354706863
  H         3.3226123900       -2.3787524058       17.9955689118
  H         3.0223709355       -2.7681236769       16.4190710409
  H        18.5313043139        1.4074670284       23.9870865032
  H        16.7597418612        1.3363293515       24.2038091841
  H        17.6213841276        2.8450765085       23.9664804327
  C        12.3183975414        7.8513708842       10.3784472102
  N        12.1174936677        9.1846267571       10.3914384852
  O        11.2065746100       10.7936913334       11.8052825160
  S        13.2104312607        7.2239771406        9.1141529571
  C        12.1937644469        9.9689738460        9.2475685838
  H        12.2666025752       11.0038872625        9.5821973626
  H        13.1303100912        9.7917684801        8.7604596846
  C        11.0059588287        9.7199702112        8.2739715920
  H        10.0797622345        9.9411350328        8.7081424862
  H        11.0903069020       10.3708530134        7.3684615316
  H        10.9563173503        8.7049608188        7.8491438726
  H         2.4237585061        4.0139645207       12.2477477777
  C         2.7558756948        2.9948751512       12.1749504676
  H         1.8721728432        2.5265888973       11.7151972476
  C         4.0184845405        2.9758163798       11.3027768559
  C         3.0055706504        2.4799156176       13.5926284065
  C         3.7133419903        2.6486755603        9.8360713512
  H         4.8741220379        2.4145783107       11.6920015030
  H         4.5994983038        3.8888811417       11.1700055952
  H         3.0584310936        3.3726234194       14.2273104800
  H         3.8934831041        1.8571698738       13.6816107860
  H         2.2282306283        1.8786491014       14.0009441881
  C         4.5986359546        1.6271804295        9.1098963440
  H         2.6545943272        2.3601065015        9.7345894886
  H         3.7805987601        3.6316615826        9.3294025480
  C         5.6047563893        2.2618570907        8.1320318841
  H         3.8753225641        1.0135117654        8.6741559600
  H         5.0861510919        1.0475711799        9.9252155223
  C         6.8053475615        3.1706515090        8.6415009045
  H         5.0486017050        2.7949245013        7.3928855472
  H         6.0520273273        1.5348097714        7.4984408431
  C         8.0500203310        2.3636722101        9.1520092670
  H         7.0022704028        3.8919302369        7.8727265087
  H         6.3314659893        3.8121942841        9.3891819463
  C         9.3209207608        3.2853159031        9.4234471489
  H         8.2440366825        1.5290581907        8.4597954360
  H         7.8676131403        1.9214971321       10.0786976825
  C         9.0318315670        4.6647384174       10.0994895889
  C         9.7251441140        3.9583260703        8.1927324943
  C        10.5247579941        2.5037268745       10.0792926207
  C         9.1319356808        5.6981333226        9.2241350689
  C         8.5306184939        5.0821387025       11.3920102202
  C         9.6961516666        5.3105008729        8.0394519355
  C        10.1025938867        3.2694929091        7.0242520357
  H        10.1222574699        2.0874503224       11.0333150721
  H        10.8955465548        1.6477220565        9.5718728009
  C        11.6705413588        3.4209102616       10.4987286498
  S         8.5885307246        7.2174270387        9.9242826710
  C         8.3528175435        6.4471646907       11.4134676334
  H         8.2089792387        4.3361163776       12.1035801843
  C        10.1798102722        5.9133117384        6.9425421480
  H         9.9440319203        2.2294988242        6.9876128545
  C        10.5407843975        3.8670440643        5.8740073196
  H        11.3961303195        4.4765459038       10.6473816135
  H        12.2854796921        3.3807995327        9.6312995797
  C        12.4675964761        2.9945777234       11.7502036057
  C         7.7135538035        7.1840798104       12.5805732160
  C        10.5794604679        5.2221294312        5.7942093456
  H        10.1352028647        7.0220948925        6.9394300871
  C        10.9734158565        3.4524503874        4.6435546472
  H        13.4606047485        3.5038995617       11.8174715372
  H        12.8010711238        2.0024160952       11.6615658029
  C        11.6588859568        3.0839732275       13.0537638438
  C         7.7811540531        8.5806856437       12.8070974260
  C         7.2268720810        6.2954623373       13.7052070367
  C        11.0892753602        5.8732215566        4.5424736065
  C        11.3103698535        4.4950420029        3.7992503910
  S        11.2386395491        1.8740478244        3.9672124522
  H        11.4019214308        4.1272239912       13.2949004853
  H        10.6773183264        2.5692909319       12.9493450249
  C        12.5038484713        2.3818674258       14.1543556757
  N         8.2825266517        9.4823560655       11.9172349491
  C         7.3958397816        9.1536064115       14.0161919405
  C         6.9413591036        6.8978919445       14.9516963779
  H         7.2120897793        5.2141959601       13.5692970313
  C        12.3983720157        6.5783535547        4.6314378194
  C        10.0145394192        6.7358435086        3.8632169229
  C        11.8078823358        4.0451009130        2.5423979657
  C        11.7692835911        2.6874065511        2.5156830485
  H        13.3847967433        3.0465869204       14.4211043428
  H        13.0847557421        1.5459644841       13.8030546148
  C        11.6705252421        2.1258893549       15.3207645117
  S         8.0711260661       11.0102342721       12.5300396329
  N         7.6277387555       10.4897009585       14.0065929560
  C         7.0353188266        8.3669308156       15.1546517289
  H         6.6627168106        6.1729817615       15.7496589371
  H        12.3187629531        7.4143104702        5.3213883529
  H        12.6900393203        6.9588628731        3.6759736348
  C        13.5203806328        5.7045198309        5.1712889869
  H         9.6467720311        7.3956089037        4.5571805537
  H        10.6076986311        7.3538937333        3.2190616154
  C         8.8642313014        5.8998533046        3.2040296721
  H        11.9981306013        4.7573863067        1.6735693746
  C        11.9748055370        1.9135280077        1.2667315751
  H        10.9945466115        2.9446873892       15.5155084085
  H        10.9948152355        1.2417754018       15.0748959707
  C        12.4114783800        1.9078227486       16.6430833421
  C         6.7396446366        9.0122749980       16.4148612169
  H        13.1665519781        5.4709874065        6.2243739723
  H        13.7477109530        4.7713066301        4.6936740677
  C        14.9248858886        6.3792242230        5.3992733161
  H         8.4732504124        5.2207210233        3.9791207554
  H         9.1830905630        5.2434481574        2.3648118906
  C         7.6286604676        6.7305977384        2.6709510129
  C        11.7644467935        0.4919819423        1.0840338322
  C        12.2493887261        2.6053759049       -0.0238580662
  H        13.2040970530        1.1845915907       16.5285451957
  H        11.5713200973        1.6109207186       17.3126084970
  C        13.1304926251        3.1045951766       17.3331818545
  H         6.7359368578       10.0758265069       16.3204500544
  C         6.3412015915        8.5636114850       17.6501462225
  H        14.8667029068        7.4465025665        5.6801397094
  H        15.5629909831        6.4298251584        4.4910113216
  C        15.7796775200        5.5513870271        6.3663997077
  H         7.3417994061        7.4985634145        3.4123628556
  H         7.8580187482        7.1886223115        1.7171126706
  C         6.4399354940        5.7579729246        2.3805494736
  N        11.5111837194       -0.4226235491        2.1235512298
  C        11.9720845281       -0.2428770299       -0.0488226125
  C        12.4963966762        1.8848789286       -1.1988014724
  H        12.6652335260        3.5823268978        0.0109869492
  H        12.3205343922        3.8818541403       17.3521918091
  H        14.0746506781        3.4339509914       16.8571778566
  H        13.2611543660        2.8497819503       18.3699185553
  S         6.0462451770        6.9187930342       18.2278119325
  C         6.3154830549        9.6327762656       18.6767431415
  H        15.7075514607        6.0546436720        7.4032443785
  H        15.3639351041        4.4902363454        6.5347353852
  C        17.3283438178        5.5545208253        6.1222550487
  H         6.4302368901        5.0900080139        3.2921717098
  H         6.4878369792        5.1222457854        1.5201883836
  C         5.1110823077        6.3999813408        2.2813722759
  S        11.3510928648       -1.9563335910        1.5972432419
  N        11.9865338916       -1.6244160316        0.1288636846
  C        12.3915916578        0.3763403275       -1.2469233469
  H        12.8040900196        2.3467933569       -2.0958417102
  C         5.7855371621        7.7350793246       19.8020731054
  N         6.0259525395        9.0573698488       19.8550418044
  O         6.7881709520       10.7523786849       18.6118619827
  H        17.6109019427        4.8919878139        5.2809371745
  H        17.6115570756        6.5709784981        5.7582526256
  C        18.1437706079        5.1498440986        7.3599355546
  H         4.3227556675        5.6273525426        2.1849965168
  H         4.8624621891        6.8846768269        3.2238390709
  C         5.0357605000        7.4644481007        1.1792331521
  C        12.6334087647       -0.5106694850       -2.4075415714
  S         5.6094844098        6.8118856891       21.2840660414
  C         6.2030404060        9.8328315297       21.1366275654
  H        17.5404467583        5.0304004555        8.2525321546
  H        18.4899452253        4.1300152216        7.1780054790
  C        19.3766120604        6.0612309054        7.4741062452
  H         4.7485700860        6.8592898687        0.3171950032
  H         5.9935256505        7.8775692242        0.8998156209
  C         4.0449449605        8.5608976692        1.3751692434
  H        12.3167765634       -1.5483856263       -2.2939493258
  C        13.2674573520       -0.2876298774       -3.6296958798
  H         5.6039062289        9.3929106756       22.0233242120
  H         5.7574457470       10.7817337995       21.0967367512
  C         7.6309918597        9.9487233717       21.5595072114
  H        19.8556722517        5.8128402953        8.3732426013
  H        19.1853715975        7.1102038847        7.5775939056
  C        20.3610771120        5.9318295058        6.2708794044
  H         4.1684978452        9.1035993237        0.4627778696
  H         3.0346936839        8.1734661150        1.4728357042
  C         4.1676613374        9.3075567494        2.6959501472
  S        14.0093448559        1.1737968693       -4.1755693328
  C        13.2829025427       -1.4367561918       -4.5608430238
  H         8.0183532733        9.0889941635       22.1143959225
  H         7.6723285848       10.8550608962       22.1687140029
  H         8.2891714963       10.0443222769       20.6609134460
  H        19.9179920004        6.3184253221        5.3126991114
  H        21.2635356094        6.3895595571        6.4879621815
  H        20.5542406817        4.9222227019        6.2064424284
  H         3.7525697736        8.9249513203        3.6108602742
  H         5.2181051217        9.5805015809        2.7714150242
  H         3.6890943894       10.3015977142        2.4947245550
  C        14.2420820385        0.2345292449       -5.6832219647
  N        13.8475728324       -1.0569405980       -5.6968058112
  O        12.7075643069       -2.5364645079       -4.3713296495
  S        15.1263072878        0.8124999524       -7.1291052647
  C        13.7619722486       -1.8868286241       -6.8669626520
  H        13.6813288072       -2.9488589933       -6.4454944689
  H        14.6727935755       -1.9159393219       -7.4374447756
  C        12.5290221611       -1.5347023623       -7.6779246549
  H        12.5481336681       -2.0644205510       -8.6876345883
  H        12.5570685865       -0.4563175062       -7.9726532967
  H        11.5610489716       -1.5819447686       -7.1218323091
