352
 i =    14000, time =     7000.000, E =       118.4858679929
  H         9.7828276680        4.3993093603       33.1745743235
  C        10.0162175124        5.4185043678       32.9001698982
  H         9.3727705817        5.9550389356       33.5477841388
  C         9.4137312174        5.8802659664       31.5874757379
  C        11.4647557603        5.9078082353       33.2981703752
  C         9.9615299734        5.3029346529       30.2562236720
  H         8.2474138153        5.7577191105       31.6164523811
  H         9.6332144602        6.9242752681       31.4643538509
  H        11.4732606507        6.7544559730       33.9298138672
  H        12.0132949603        5.1391464195       33.8209636894
  H        12.1256019378        6.0598912603       32.4604338116
  C         9.7501786831        6.3029340862       29.1405636966
  H         9.4677259299        4.3863303163       30.0445771749
  H        11.0194430987        5.0219244486       30.3202192118
  C        10.5212326356        5.9796639133       27.8730768315
  H         8.6859263292        6.6028699981       28.9493322450
  H        10.3161863983        7.1216228613       29.3776834823
  C         9.6610669854        5.2153207539       26.8385252632
  H        11.4908826133        5.4837389552       27.9810471581
  H        10.7858749440        6.9430780478       27.5438708078
  C         8.5471549010        6.0900012600       26.3116742068
  H        10.1601984397        4.7584457951       25.9584216800
  H         9.3110217412        4.3476438986       27.4141639602
  C         7.4145214464        5.3444116734       25.5824699436
  H         8.1471460059        6.7410839777       27.0124322052
  H         8.9807109912        6.7617155907       25.6505050306
  C         6.9711977969        4.0155277140       26.2654645509
  C         7.8019073789        4.6100079732       24.3800083257
  C         6.1162032594        6.1908139914       25.2732016857
  C         7.2643753781        2.8881206146       25.5454663117
  C         6.3164871374        3.5575549628       27.4631506246
  C         7.7706228993        3.2328803208       24.3057410673
  C         8.3279723915        5.2330394737       23.1933132329
  H         6.2966034178        6.9279271380       24.5076463101
  H         5.8214186044        6.7846247815       26.1589449178
  C         4.9313885034        5.5280838222       24.6133617374
  S         7.0254804540        1.4022762579       26.3140071372
  C         6.3314522079        2.2285768681       27.6095726863
  H         5.9003003262        4.3630539939       28.0289001781
  C         8.2205039974        2.6189852627       23.1526768967
  H         8.3868367550        6.3115464835       23.2279932862
  C         8.6119374227        4.5650311136       22.0200092700
  H         5.2531725671        5.2385329536       23.6322692081
  H         4.6142173159        4.5868594099       25.0849912307
  C         3.7486861719        6.5150923055       24.4688713121
  C         5.7921426765        1.4527960861       28.8609022453
  C         8.5898021438        3.2130917751       21.9420440539
  H         8.2149610430        1.5268722936       23.2612597975
  C         9.0278555014        4.9458950735       20.7340873960
  H         2.9268705859        6.1472825640       23.7605273052
  H         4.0780144125        7.4850625510       24.1261292235
  C         3.0520377737        6.8283330195       25.7310046007
  C         5.9844795002        0.0633260543       29.1351361028
  C         5.1189972326        2.1933011295       29.9342838188
  C         8.9643249806        2.5527755773       20.6694146079
  C         9.2672664801        3.8354328118       19.9135188332
  S         9.1921187208        6.3934081331       19.8787724143
  H         2.2854604981        7.4233008884       25.3025705003
  H         3.6917052891        7.5414638206       26.2845183798
  C         2.5588910828        5.6340225774       26.6248077474
  N         6.3827592495       -0.8904767004       28.1923872818
  C         5.5832762818       -0.5767317664       30.2713928145
  C         4.8033467397        1.6064912133       31.1848237449
  H         4.8913273891        3.2512056443       29.8063741268
  C         7.8748506272        1.7571452993       19.9299825490
  C        10.1990721692        1.7020153566       20.8131976142
  C         9.6073471140        4.2349643089       18.5669738477
  C         9.6575410180        5.5621922755       18.4432987977
  H         2.0545348360        4.8455861132       26.1125837977
  H         3.4036789717        5.0026796778       27.0905118475
  C         1.6043512728        5.9835118004       27.8289963020
  S         6.4986881036       -2.3932637520       28.7815216440
  N         5.8317505858       -1.9542991660       30.2521063713
  C         5.0947319462        0.1649969656       31.3833067380
  H         4.2445974135        2.1692498409       31.8742555579
  H         7.5167735748        0.9300904079       20.6244356582
  H         8.3899609250        1.2493632068       19.0807143498
  C         6.5945297963        2.6083445884       19.4974044366
  H        10.4719611359        1.3627864376       19.7717335282
  H        10.0030745657        0.7087917119       21.2401431973
  C        11.3712209275        2.3839499509       21.4852501524
  H         9.8573044244        3.3509512020       17.8838725552
  C        10.0138783147        6.2509820532       17.1150460033
  H         0.6502433606        5.8594763823       27.3691024418
  H         1.5932464217        7.0386622511       28.0920206304
  C         1.8121215382        5.0102733889       28.9931182627
  C         4.8225311973       -0.5375420796       32.6307053241
  H         6.8114468495        3.4253340179       18.8592779578
  H         6.3315893530        3.0466858527       20.4162994111
  C         5.4927953055        1.7264474232       19.0536425672
  H        11.1099958391        2.5557714154       22.5404724735
  H        11.6956540797        3.3091804459       21.0504132677
  C        12.6444366328        1.4979698483       21.5838036195
  C         9.9626594494        7.6703980802       16.9831105569
  C        10.2054310760        5.4810551849       15.8609661168
  H         1.4972346904        4.0122758814       28.6559804391
  H         2.8400941347        4.7868827841       29.3236093318
  C         1.0205991003        5.4513794546       30.1676658624
  H         5.2227164090       -1.5480841222       32.5993905294
  C         4.5317121031       -0.0972235116       33.8669794820
  H         5.0507065340        1.3861381266       20.0386190779
  H         5.8552842782        0.7773413010       18.4883641682
  C         4.4502783522        2.4251679685       18.2190874319
  H        12.5083249205        0.7274018000       22.4151519404
  H        12.7139482439        0.9510290322       20.5973546340
  C        14.0476229353        2.1861397275       21.7246233597
  N         9.8879705381        8.5010760931       18.0836545378
  C        10.1469922008        8.3667939443       15.7651543315
  C        10.2149839771        6.1794457816       14.6872575596
  H        10.2239103712        4.4380560271       15.8902883710
  H         1.4244646753        4.9018544413       31.0768628943
  H         1.0186785664        6.5718174342       30.4366523640
  H         0.0048539969        5.2022208247       29.9775572537
  S         4.1175356037        1.5062582275       34.3938361912
  C         4.5295673301       -1.1642456915       34.9102906069
  H         4.4188647175        3.4517150448       18.4748071859
  H         4.7064129015        2.3963323229       17.1328790381
  C         3.0491947956        1.7825239443       18.3462421994
  H        14.0677898046        3.0943202186       21.1946741476
  H        14.7917744409        1.4342367592       21.3153339488
  C        14.3414212810        2.5917313776       23.1857737512
  S        10.1381987317       10.0920092974       17.6236333201
  N        10.3812416327        9.6896716031       15.9804431513
  C        10.3116927942        7.6987710208       14.5703286460
  H        10.1651149389        5.6122822001       13.7784593511
  C         4.1230012753        0.7626695582       36.0091062439
  N         4.2489779094       -0.5830326505       36.0381824954
  O         4.9391670833       -2.3246375036       34.7210281829
  H         2.3092644164        2.4753448501       17.8682118594
  H         2.7389202146        1.7782416390       19.3472155176
  C         2.9137790113        0.3877892193       17.7687427114
  H        13.6807438443        3.4119878898       23.3979103429
  H        14.0637202698        1.7336584765       23.8783687838
  C        15.6082205127        3.2141104450       23.5028204756
  C        10.4447578744        8.4926990271       13.4248904324
  S         3.5942172373        1.6963611763       37.3822882088
  C         4.4543096846       -1.3420071026       37.2207719873
  H         2.2146334282        0.3501710064       17.0061047704
  H         3.8550794384        0.0911530155       17.4960145746
  C         2.4833487666       -0.6472211777       18.7939202981
  H        15.6581583641        3.5254462917       24.5850020783
  H        15.7385570944        4.1455668847       23.0134279572
  C        16.7577837380        2.2811606497       23.2253383320
  H        10.0464828683        9.4360611458       13.4272739277
  C        11.0148611470        8.2153798266       12.1747049266
  H         3.7886700648       -0.9342796783       38.0635936770
  H         4.1818762222       -2.3186692184       36.9370439946
  C         5.8788834903       -1.4026548937       37.7698198492
  H         1.6339877036       -0.2407336251       19.3258159941
  H         3.3918443312       -0.7956639799       19.3972786533
  C         2.1093950102       -1.8467349621       17.9842317693
  H        17.3666506147        2.1158220414       24.0994681756
  H        16.3614937077        1.2891976383       22.9478248722
  C        17.4912691630        2.7760762614       21.9718486136
  S        11.5673721666        6.7144104202       11.6019894766
  C        11.1818021552        9.2887006344       11.1758056011
  H         6.0094936686       -2.4622716764       38.1259350151
  H         6.6232635769       -1.1374768345       37.0598311207
  H         6.0150683150       -0.7438334487       38.6589958043
  H         1.8421917391       -2.5891625895       18.7269377611
  H         2.8360898585       -2.4085061259       17.3548286549
  H         1.3030792550       -1.7410641717       17.3010224438
  H        18.0200212566        3.7112276056       22.0884924699
  H        16.7681128808        2.5946103816       21.0610554906
  H        18.2999487530        2.0587412137       21.9171360735
  C        11.9701220138        7.5274657909       10.0750860611
  N        11.8372991630        8.9031400418       10.0588483010
  O        10.9212337036       10.4408399557       11.4642463909
  S        12.7594251286        6.7497596645        8.7282783536
  C        11.9876088270        9.6929109631        8.8993799368
  H        12.2468640903       10.7150941437        9.0371093328
  H        12.7638092109        9.3537666228        8.3221912554
  C        10.6869064405        9.6348334728        8.2062473345
  H         9.8874287629        9.1914210824        8.8319124459
  H        10.4563718856       10.6281903222        7.9009088041
  H        10.6105418323        8.9804003167        7.3154109979
  H         4.8284683530        1.6028214158       12.8504471439
  C         4.0751399965        2.3816117853       13.0160870958
  H         4.4700650205        3.4064841081       13.0089129151
  C         3.1645731736        2.2782832722       11.7666012889
  C         3.2711305346        2.1322677728       14.3231080427
  C         3.8344934925        2.6459298886       10.4456833612
  H         2.4842018086        3.0920346767       11.8736963914
  H         2.6632396343        1.2819862635       11.6944041745
  H         2.4814786753        1.4381408948       14.1777407402
  H         2.9066243978        3.0835655751       14.8357620006
  H         3.8877286664        1.5230441695       14.9298016754
  C         4.4803696620        1.3878075100        9.8629587938
  H         3.0115884352        2.8646214021        9.8174393239
  H         4.5598783138        3.4573491472       10.5154142889
  C         5.1967169660        1.4512689337        8.5131485457
  H         3.5901658572        0.7573281822        9.8111452565
  H         5.1967941409        0.9529304885       10.5449960923
  C         6.4847686537        2.2865944095        8.6189006163
  H         4.4966938118        1.8929236398        7.7544991152
  H         5.4220905358        0.4596054812        8.1718695040
  C         7.7423492585        1.5971228734        9.1210830766
  H         6.8576225578        2.7007623141        7.6660329475
  H         6.2223219388        3.1028507951        9.2597830356
  C         8.9320929950        2.5582625815        9.4066766176
  H         8.0289566797        0.7763308080        8.4128733446
  H         7.4312363338        1.0988062310       10.0342414870
  C         8.6434765687        3.9267134565        9.9856903934
  C         9.5074527899        3.2698449329        8.1409880879
  C        10.0052629063        1.8763270226       10.2494722921
  C         8.9413547304        5.0410646631        9.2017450479
  C         7.9173262542        4.3123247350       11.1294617464
  C         9.5948728220        4.6155153200        8.0417203668
  C         9.8913361249        2.6372494319        6.9041008722
  H         9.5026088370        1.2370109810       10.9601650737
  H        10.5247148249        1.1962561020        9.5440879076
  C        11.1783930125        2.8093024566       10.8728174991
  S         8.3755654330        6.5266920107        9.8486956792
  C         7.7625749343        5.6622471777       11.2292999679
  H         7.6792443954        3.6302101787       11.9322624878
  C        10.0202100978        5.2409858508        6.8851209096
  H         9.7548848445        1.5685345032        6.9123103668
  C        10.2402943054        3.2242333223        5.7269175922
  H        10.7269496000        3.4731170866       11.5812777065
  H        11.6622896112        3.4557129212       10.1359841883
  C        12.1368875333        2.0786047226       11.8292047152
  C         7.3650457437        6.3369328398       12.4857078195
  C        10.3273133825        4.6115865604        5.6609902581
  H        10.0193264301        6.2880007077        6.9034348452
  C        10.5810917617        2.8415389565        4.4426396258
  H        12.8926265182        2.7935684311       11.9924663025
  H        12.6200193246        1.3193065223       11.3000596502
  C        11.3661183485        1.6036810971       13.0938698688
  C         7.3477642600        7.7087846341       12.7549663871
  C         6.9421114403        5.4755571653       13.6296148054
  C        10.7018707362        5.2983950874        4.4055150136
  C        10.8941296909        3.9130210576        3.6541464455
  S        10.8660902568        1.3031248308        3.7036645621
  H        10.3024682995        1.8956203943       12.8388174938
  H        11.4183264416        0.5247327278       13.0573483990
  C        11.7539174461        2.1256778298       14.4566696418
  N         7.7084520385        8.7008517690       11.8490633079
  C         7.1827493648        8.3022531835       14.0295437071
  C         6.6254682131        6.0317503551       14.8692014428
  H         6.8900007143        4.3863291900       13.5397351861
  C        12.0194436918        6.1311126707        4.5618063442
  C         9.5374832918        6.0976026634        3.7784886052
  C        11.1022301886        3.5527367639        2.3752255414
  C        11.1391896635        2.1697586266        2.2689439062
  H        10.9512372759        2.0757600649       15.1120138527
  H        12.0315762431        3.1794498344       14.4790945329
  C        13.0071913479        1.4702752268       15.1371885796
  S         7.3013564418       10.2001549018       12.4436606320
  N         6.9449777064        9.6442954147       14.0009018939
  C         6.8361886451        7.5282924219       15.1730288256
  H         6.2807721801        5.3586054290       15.6472405510
  H        11.9803154399        6.7252498259        5.4721271498
  H        12.0782964340        6.9336263654        3.8188295117
  C        13.3651273292        5.3594822648        4.6772136665
  H         9.2947114645        6.9330892086        4.4168769023
  H         9.8013672677        6.5341930971        2.8867715131
  C         8.2932781382        5.2281242566        3.5674418014
  H        11.2944017086        4.2440255224        1.5495984817
  C        11.5561683558        1.4043963861        1.0794625955
  H        12.9918631839        0.3628513277       15.0393504604
  H        13.8246414996        1.6551082253       14.5065060264
  C        13.3364876242        2.0944195480       16.4827534168
  C         6.7029080037        8.1983528862       16.4328260611
  H        13.1187895766        4.9315763387        5.6413802572
  H        13.3166364498        4.4956640221        3.9814625188
  C        14.5094439935        6.4288185178        4.7411710325
  H         8.0953997422        4.7997121896        4.4881771986
  H         8.4546545145        4.3754178501        2.9178572906
  C         7.0516938836        6.1500754457        3.0520622459
  C        11.5541192115        0.0358080903        0.8789289948
  C        11.8540935702        2.1290390152       -0.1126891157
  H        14.0208156134        2.8708144798       16.4895113284
  H        13.9100091786        1.3325013315       17.0347817109
  C        12.2120784355        2.3688891661       17.4494336154
  H         7.0563070310        9.2088323309       16.2647581275
  C         6.5067814102        7.8437047126       17.7104528134
  H        14.1532946474        7.1467548714        5.5275241430
  H        14.6083970944        6.8449319911        3.7707223988
  C        15.7770144190        5.8757255726        5.2922672520
  H         6.9261140140        6.9957013902        3.7384816946
  H         7.3690163675        6.7224662421        2.1217384623
  C         5.6744387178        5.5922531978        2.8312511673
  N        11.1194804290       -0.8863702828        1.8082807403
  C        11.9050929878       -0.5860937849       -0.3575569817
  C        12.1714319097        1.5752396126       -1.3420602356
  H        11.9185919234        3.2495108226       -0.1344890200
  H        12.4872652853        2.2533874580       18.4650467386
  H        11.2996825686        1.7686622692       17.1668961063
  H        12.0997406892        3.4221121025       17.2844582886
  S         6.2385103536        6.2038303062       18.1354190663
  C         6.4814191454        8.9200983298       18.7315362361
  H        15.9108957338        4.8145860194        5.0302277484
  H        16.4423951616        6.4768037977        4.6976207929
  C        16.0644320618        6.0210406582        6.8411116779
  H         5.3867316207        5.2730397844        3.8162259818
  H         5.8763300595        4.7656421876        2.2261141328
  C         4.6551047904        6.5956359047        2.1402431525
  S        11.2894306759       -2.3806029046        1.1607411108
  N        11.8457252261       -1.9609985009       -0.2621452248
  C        12.3020565803        0.1224260448       -1.4944892987
  H        12.1475640892        2.1820808721       -2.2286512760
  C         5.9905992886        6.9441064826       19.7608437247
  N         6.1787495640        8.2916483162       19.8601082299
  O         6.6666412560       10.1044567853       18.4700967836
  H        16.2081554052        6.9494668514        7.3413630226
  H        15.1226784209        5.6954636824        7.2552689960
  C        17.2026149041        5.1403421844        7.3660916261
  H         5.1596615044        6.8563164828        1.2185897418
  H         3.7236201114        6.1158993332        1.9624350680
  C         4.4679995411        7.8364767062        2.9980322620
  C        12.6923830265       -0.6047876458       -2.6231911198
  S         5.5718848269        6.0917747300       21.2463690016
  C         6.1048341090        9.0047784371       21.1390317410
  H        16.9236818671        4.8032358209        8.3389797464
  H        17.3519989636        4.3273522509        6.7014248913
  C        18.4390330977        5.9971839860        7.5246956988
  H         5.3900083780        8.2840506109        3.3886938398
  H         3.9305595522        7.5573930315        3.8465691766
  C         3.6498228662        8.8818478774        2.2725851762
  H        12.6027937517       -1.7633327979       -2.6059036159
  C        13.2938619470       -0.2065707831       -3.8002625350
  H         5.2446302832        8.9078126074       21.7073975314
  H         6.1890804036       10.0444659959       20.7881275269
  C         7.3499104850        8.7030813460       22.0574349052
  H        19.1766697912        5.5591888104        8.1482059758
  H        18.2085303095        7.0038706796        8.0221678687
  C        19.3083936403        6.2359380016        6.2692555820
  H         2.6967832347        8.4881825406        1.8076956973
  H         3.4848522068        9.5976476636        3.0724906906
  C         4.4108982175        9.6414864603        1.1420489664
  S        13.6586289732        1.4027855037       -4.1630370591
  C        13.2881836189       -1.1317981272       -4.9665961274
  H         7.5966555342        9.5449104369       22.6120530919
  H         8.2515491296        8.4731301556       21.4885114248
  H         7.1665562079        8.0359028954       22.8974466736
  H        20.3636160508        6.0931689891        6.4032390900
  H        19.0460723501        5.6758056855        5.3378225316
  H        19.0290113976        7.2313871432        5.8480064847
  H         3.6964286340       10.0666740615        0.4416943561
  H         4.8385854569       10.5761087890        1.4583818726
  H         5.1589812583        9.0047682800        0.7285375173
  C        14.0312210798        0.8193903849       -5.8056466342
  N        13.7944147854       -0.5259465657       -6.0507241795
  O        13.0314374217       -2.3588152183       -4.8293578809
  S        14.8218038923        1.8085418106       -6.9149426589
  C        14.0081349710       -1.1546206979       -7.3421415665
  H        14.0252243975       -2.2482192004       -7.3246204880
  H        15.0008997005       -0.9462135045       -7.6189063590
  C        13.0232775713       -0.6104050323       -8.4246394517
  H        13.3080478758        0.0650274421       -9.2302901304
  H        12.1476906540       -0.2612861385       -7.9345690765
  H        12.7547864731       -1.5094597439       -8.8997747385
