352
 i =    18600, time =     9300.000, E =       102.3440772975
  H        10.6681576638        4.1712404637       31.9651249565
  C        10.9191496995        5.2495548357       31.8677952943
  H        10.0036508754        5.8060961118       31.7612202863
  C        11.9415756409        5.5059568999       30.7195207465
  C        11.5179303204        5.6032955267       33.2489892742
  C        11.6517110313        4.9284374387       29.4033227354
  H        12.0628245669        6.6451515509       30.5917586706
  H        12.9418038791        5.2103621233       31.0291029691
  H        11.5499273259        6.7399235671       33.1495048752
  H        10.9116279613        5.1932178769       34.0629716563
  H        12.5120217237        5.1985631269       33.1988314642
  C        10.4808568463        5.5994863575       28.6901419527
  H        11.4001350944        3.8605360226       29.5731830606
  H        12.5293364414        4.8061369119       28.7613692356
  C        10.7365217510        5.5706219479       27.1617893801
  H         9.5531410890        5.1016670017       28.9470924176
  H        10.4766727332        6.6428352196       28.9504603400
  C         9.6235744092        4.7771201761       26.4785632692
  H        11.6842064500        5.1515354479       26.9458466761
  H        10.7787353751        6.5372833488       26.6936585672
  C         8.3813356470        5.7063053757       26.0760169543
  H        10.0124569051        4.3805890837       25.5802530267
  H         9.3201712582        3.9518870840       27.1823391952
  C         7.2172868824        4.9509157262       25.3920113528
  H         7.9831873657        6.1354630068       26.9642698599
  H         8.6573525466        6.5418456279       25.3991222464
  C         6.7605602144        3.6593811187       26.0455076936
  C         7.5903599296        4.2166611620       24.1384628913
  C         6.0291711144        5.8916086574       25.2295250673
  C         6.9803218543        2.5377833130       25.2916775994
  C         6.3515314179        3.3499551289       27.3699298385
  C         7.5291619472        2.8631723168       24.0783137910
  C         8.0978164636        4.8373455970       23.0060699624
  H         6.2821248996        6.7324415714       24.6705986716
  H         5.6977521843        6.1368543203       26.2157189023
  C         4.7848713132        5.2395959358       24.6573562175
  S         6.5704712628        1.1084634952       26.1005831485
  C         6.0751632820        2.0600552314       27.4643992834
  H         6.2057874557        4.1184697512       28.0680677007
  C         7.9534235428        2.2253884664       22.9219647940
  H         8.2617050005        5.8821397605       23.0810633157
  C         8.3594113539        4.1960659183       21.8622000793
  H         5.0254596867        4.8510796121       23.6526504373
  H         4.5377800406        4.3184645933       25.1850023349
  C         3.5424331426        6.0575930388       24.5153695942
  C         5.5942364738        1.4153530093       28.7659593061
  C         8.3821794528        2.8589980384       21.7645066262
  H         7.8295537087        1.1771889109       22.8570050417
  C         8.8912810302        4.5966487921       20.6378429698
  H         2.8315005689        5.4839058848       23.9161514171
  H         3.6944276699        7.0259254333       23.9667053866
  C         2.8057780420        6.3555355615       25.8169288828
  C         5.5215448745       -0.0060909191       29.0301833159
  C         5.1746043513        2.2519020938       29.9315107178
  C         8.8812815280        2.1661341650       20.4858985575
  C         9.1567001851        3.5431942860       19.8351596986
  S         9.1232844514        6.1641444120       19.9638625467
  H         1.8868546158        6.8538691362       25.5474502407
  H         3.3783626799        6.9802403312       26.4770244270
  C         2.3337045209        5.1395446734       26.6466856240
  N         5.8176690791       -0.9633451773       28.0720337311
  C         5.4045708724       -0.5390509502       30.3142372679
  C         5.0065788189        1.7147241832       31.1986617539
  H         4.9720618189        3.2710019590       29.6672808575
  C         7.8420528073        1.4227070408       19.6335011031
  C        10.2112611472        1.4794623024       20.4394170072
  C         9.5604130932        3.9716437587       18.5621840002
  C         9.5371308276        5.3314163065       18.4828394798
  H         1.3417540568        4.7757482386       26.3463933997
  H         3.0300155138        4.2455320338       26.6236220640
  C         2.1073343533        5.5982387696       28.0575023829
  S         5.9225452879       -2.3951170905       28.8583165308
  N         5.5511730160       -1.8961166768       30.3528417904
  C         5.0691410516        0.2710632871       31.4452917903
  H         4.6619380801        2.3035980425       31.9829730521
  H         7.6375921549        0.5782073057       20.2194418393
  H         8.3880664096        1.0859793217       18.6822879544
  C         6.5775135666        2.2386983969       19.2589007869
  H        10.4086020992        1.1828133084       19.3815923128
  H        10.1518771275        0.6058083688       21.0101594945
  C        11.4781586057        2.1462133210       21.0364745211
  H         9.7905025199        3.1993569128       17.8595728786
  C         9.8230003896        6.1119995932       17.2193065689
  H         2.2854501105        6.7329702155       28.2057207451
  H         2.8746393633        5.1472969111       28.6995002130
  C         0.8502719841        5.1098969976       28.7242870903
  C         4.8618719969       -0.3227781653       32.7162805428
  H         6.7097142064        3.0377516674       18.5839569055
  H         6.1189006334        2.6441615718       20.1488067946
  C         5.4133373374        1.3310794642       18.8595705772
  H        11.2792736953        2.4161238551       22.0917856342
  H        11.6043275877        3.1196217152       20.5581073553
  C        12.8776972852        1.5203491459       20.7257321104
  C         9.9020237877        7.5229011676       17.0964837751
  C        10.1831074925        5.3950043452       15.9692786593
  H         0.1317644561        5.7851090370       28.3085871847
  H         0.7376213784        4.0408225165       28.5942850972
  C         0.8239448480        5.3335399469       30.2700014712
  H         5.2455965673       -1.3607521949       32.7459486874
  C         4.5536617911        0.0981250177       33.9948148939
  H         5.3578497132        0.4353152393       19.4612360860
  H         5.5508048983        0.9844327527       17.8497874936
  C         4.0374960746        2.0952062728       18.8048736843
  H        12.8490690576        0.5304121223       21.1890276616
  H        13.0663647569        1.3523593475       19.6436806759
  C        14.0343158461        2.3811343881       21.2124138230
  N         9.7304363093        8.4415610630       18.1270513566
  C        10.1825228607        8.1701377644       15.9332006222
  C        10.4435037221        6.0281174647       14.8045395513
  H         9.8955388691        4.3026783819       15.9997945367
  H        -0.1376153494        4.9445216154       30.6787603943
  H         1.5947717985        4.8472305716       30.8468365272
  H         0.9122190577        6.4141624424       30.6044705235
  S         4.2182330275        1.6920087719       34.4422441789
  C         4.4434493678       -0.9282702094       35.0369375305
  H         4.0218821650        2.9571113326       19.5116076836
  H         4.0334696891        2.5640354565       17.7984177479
  C         2.8226780678        1.1278914522       19.0336477747
  H        13.9609068643        3.3800564744       20.7489858050
  H        14.9668178000        1.9235963327       20.9888406644
  C        13.9681220948        2.5173322352       22.7198068442
  S         9.5554036025        9.9381554869       17.5057744577
  N        10.0064995503        9.5255778911       16.0014569904
  C        10.5045940736        7.5345748302       14.6937514092
  H        10.5398348870        5.3982921563       13.9729689824
  C         3.8768184785        1.0168387942       36.0599058083
  N         3.9769496695       -0.3125446511       36.1825202323
  O         4.4785973157       -2.1176857171       34.8695433764
  H         1.9758894088        1.7206469340       19.2012848863
  H         2.9923332400        0.5562501862       19.9405450669
  C         2.6355263436        0.2199977976       17.9382850895
  H        13.1856937506        3.2741446600       22.8199141259
  H        13.7094586726        1.6377832944       23.2866555318
  C        15.2109044246        3.1452891525       23.3360979838
  C        10.7771812814        8.2934054554       13.5340989905
  S         3.6779726584        1.9509824496       37.5050023289
  C         3.7525192398       -1.0790043412       37.4247904482
  H         2.1453293021        0.7270314803       17.1251221396
  H         3.6295689909       -0.1525470062       17.5138738658
  C         1.7387497778       -0.9977943187       18.3111805280
  H        15.0292101458        3.5395707069       24.3710258641
  H        15.7614016937        3.8541041997       22.6372347817
  C        16.1748541564        1.9718715177       23.5590105392
  H        10.4658947274        9.2881982877       13.7602449697
  C        11.5066036159        8.1242112702       12.3717572328
  H         3.1502943534       -0.5094903851       38.0868505091
  H         3.3027667791       -2.0436316527       37.2961407466
  C         5.1665222446       -1.1821910229       38.0696805132
  H         0.6677410296       -0.6548219689       18.3792583831
  H         2.1728446896       -1.2987141316       19.2755224956
  C         1.8590144770       -2.0526680459       17.2459563657
  H        16.2555636028        1.8152877635       24.6270249444
  H        15.7808587106        1.1010117815       23.0527449789
  C        17.5286883907        2.1482861703       22.8360798830
  S        11.9592590594        6.6052078221       11.6743322915
  C        11.5749223105        9.3304950524       11.5549198579
  H         5.9412324552       -0.9459844525       37.3536228487
  H         5.2843284056       -0.5374656092       38.9300293409
  H         5.3657740078       -2.0943857582       38.5287812189
  H         1.7398344505       -3.0442277966       17.6463244426
  H         2.8145859494       -2.0842386732       16.7323702536
  H         1.0623096999       -1.8933682049       16.4931690807
  H        17.6437670482        1.3203423334       22.0384609624
  H        18.3109819750        2.1562618575       23.6731734291
  H        17.6600162059        3.1671318882       22.3270112731
  C        12.3033775076        7.6286918509       10.2572168428
  N        12.0555989386        8.9252978407       10.4126284486
  O        11.1138545969       10.4379767976       11.8720591813
  S        12.8406319409        6.9501452502        8.7245270244
  C        12.0432181994        9.7861141876        9.2431249142
  H        12.2367696556       10.8469397472        9.4911318609
  H        12.8184673171        9.6383811915        8.4781732715
  C        10.7246903618        9.8648966282        8.4742098881
  H        10.6673725113       10.8856201625        7.9751505346
  H        10.7420033264        9.1210066519        7.7479894635
  H         9.7936175894        9.7109001419        9.1002891442
  H         4.5551529775        1.8964884690       12.4282916894
  C         3.7970261681        2.6779775642       12.4488265378
  H         4.5276255861        3.5486883588       12.4203993601
  C         2.8661020175        2.6312078555       11.2128145107
  C         3.1387560971        2.6979024424       13.7823910714
  C         3.4659804893        2.7328168008        9.7578249007
  H         2.1889318473        3.4813681765       11.2463587280
  H         2.1653457005        1.8229407526       11.1955319000
  H         2.0149110424        2.6251486715       13.7173299414
  H         3.2932887633        3.6649547674       14.1942414770
  H         3.4295773692        1.8102089558       14.4373023033
  C         4.4346093900        1.6312563658        9.4269128628
  H         2.6770325673        2.7963371302        9.0248024787
  H         4.1019291167        3.6213316028        9.6590544630
  C         5.4333630002        2.0056584056        8.3447246263
  H         3.7265591904        0.8735133447        8.9604096468
  H         5.0041930168        1.2008936992       10.2696981232
  C         6.6201977027        2.8517418348        8.8088957913
  H         4.8164085024        2.5140900020        7.6569795722
  H         5.8148785020        1.1815245006        7.7641133043
  C         7.8441365087        2.0105657925        9.2948178285
  H         6.9461595795        3.3906045688        7.9120486327
  H         6.2953046777        3.5899466166        9.5401023844
  C         9.1380670868        2.9075817089        9.3805788208
  H         8.0714422560        1.2323247371        8.6014149066
  H         7.5629947783        1.4624650244       10.1836637864
  C         8.8787509836        4.2791081228       10.0660766901
  C         9.5957140503        3.5592075485        8.1366668849
  C        10.4204584635        2.1121012230        9.9165458501
  C         9.2086149300        5.3553119315        9.2546121370
  C         8.4976311070        4.6956268614       11.3327968323
  C         9.6702659757        4.9331949235        7.9797050597
  C         9.9910558485        2.9342657709        7.0058396524
  H        10.1825361949        1.6927526734       10.8720928928
  H        10.5598099665        1.2374613120        9.2542030220
  C        11.7197706104        2.9810789372       10.1138059473
  S         8.7470682699        6.8616726909        9.9428326956
  C         8.2803470288        6.0422963684       11.4060711212
  H         8.3852459327        3.8834251672       12.0322441215
  C        10.0015575130        5.5740658440        6.8364324487
  H        10.0462526966        1.8838357032        6.9908933635
  C        10.3522111226        3.4759340120        5.8165870164
  H        11.4362235351        3.8989069848       10.6190236341
  H        12.0831701831        3.2373891419        9.1830474617
  C        12.6935286034        2.2987400048       10.9784450660
  C         7.7068997027        6.7102022311       12.6055551000
  C        10.3403075127        4.8420686732        5.6952744362
  H        10.0039876119        6.7023696356        6.7309545593
  C        10.6374871670        3.0447208929        4.5520242471
  H        13.5848748067        3.0021662970       10.9297792767
  H        13.0553437857        1.3626683970       10.5684363623
  C        12.2984052915        2.0693917773       12.4114545019
  C         7.7397854220        8.1400012604       12.8153717229
  C         7.3641647196        5.8563267975       13.7966923613
  C        10.6699902514        5.4804121230        4.3387642453
  C        10.8702074083        4.0957256512        3.6934321523
  S        10.8608802854        1.5257640828        3.7682201308
  H        11.7815497383        2.9905658049       12.7336523280
  H        11.5093175166        1.3011879767       12.4311398407
  C        13.4690456467        1.8092597668       13.3035677952
  N         8.1484817113        9.0164062997       11.8815787406
  C         7.2770582804        8.6677345259       13.9741692339
  C         7.0654535205        6.4614040727       15.0297768901
  H         7.2481547290        4.7850096261       13.7403003969
  C        12.0007881579        6.2652676692        4.4207731358
  C         9.5100961695        6.3117637117        3.7453036040
  C        11.2781036290        3.7083255276        2.4140685419
  C        11.2508897956        2.3484276053        2.2988389644
  H        14.0507075564        2.6623294185       13.6624316325
  H        14.2657395560        1.2184488308       12.7238940909
  C        12.9499414037        1.0170710861       14.5807176346
  S         7.9283480738       10.5003316960       12.5058074209
  N         7.2392947904       10.0265787631       13.8883120483
  C         7.0170227601        7.9144466453       15.1559888950
  H         6.7772275862        5.7793481620       15.8779327407
  H        12.0259849363        7.1003846472        5.1096936596
  H        12.1897789854        6.6882151781        3.4545950371
  C        13.1934929994        5.3913890378        4.7874429275
  H         9.1441660436        6.8133547082        4.6060142586
  H         9.7765390452        7.0303378419        2.9787100149
  C         8.4279207813        5.3816272554        3.1831688516
  H        11.4659504937        4.4357520318        1.6249611578
  C        11.6898222235        1.5490676806        1.1044270619
  H        12.3839687250        0.1665162227       14.1915031427
  H        13.7864977499        0.5910539114       15.1519241366
  C        12.3005810443        2.0378354095       15.5724277749
  C         6.7255455828        8.5573472985       16.3993415024
  H        12.8798815029        4.7623241179        5.6363524300
  H        13.4998528561        4.8570844929        3.9350940887
  C        14.3679710792        6.3075358629        5.2079608439
  H         8.3018014314        4.5854909846        3.8777836692
  H         8.7228644756        4.9195616111        2.2366640128
  C         7.1306060422        6.1439725965        2.7973267277
  C        11.7090672303        0.1131391729        0.9068531622
  C        11.9725284786        2.3604936375       -0.1228715042
  H        11.5962427130        1.5570218158       16.2260955583
  H        11.7873440086        2.9243384401       15.1202971644
  C        13.3705957797        2.5289990884       16.5631803505
  H         6.9806050992        9.6055328113       16.3835493280
  C         6.3989904993        8.0947918441       17.6513080521
  H        14.0703224335        6.9000379508        6.0682097409
  H        14.4949701162        6.8084698576        4.3177621667
  C        15.6604510101        5.4664136062        5.5775895577
  H         7.0500018968        6.7283599979        3.7568882228
  H         7.4276993356        6.8078966456        1.9289806889
  C         5.8529000621        5.3102589265        2.5902983184
  N        11.2735413483       -0.8537095804        1.8681237968
  C        11.9983952844       -0.5139334557       -0.2748543829
  C        12.3474008133        1.7201983947       -1.3161437222
  H        11.8736844473        3.4641489626       -0.0942319793
  H        14.1559296106        2.8806184587       15.9686289266
  H        13.7614492221        1.6760860061       17.2150052732
  H        13.0514253715        3.3863721895       17.2033071429
  S         5.9120254165        6.4316700636       18.0536826593
  C         6.3779283771        9.0658989198       18.7237180163
  H        15.3430299596        4.5761104772        6.1491654526
  H        15.9744030526        5.0834585388        4.6253204645
  C        16.8147733712        6.2170992736        6.1579369207
  H         5.4324205820        4.9914875158        3.5608994269
  H         6.2049953884        4.3427931406        2.2085216557
  C         4.8703747314        6.0090229849        1.6948227576
  S        11.5310158681       -2.3724615846        1.3285717806
  N        11.9344376572       -1.8952221699       -0.2317447371
  C        12.2592648297        0.2116357350       -1.4757816018
  H        12.6723803037        2.3682814946       -2.1061541256
  C         5.8807394840        7.0874601676       19.7232153679
  N         6.0398171172        8.4724216745       19.8921389252
  O         6.6804913746       10.2486905570       18.6166795018
  H        17.3356380144        6.8691269343        5.5924097340
  H        16.4534438776        7.0723767646        6.7602979774
  C        17.5532978460        5.3780965874        7.1057368592
  H         5.2879799282        6.0403957558        0.6731091536
  H         3.9539131322        5.3726710575        1.6097255656
  C         4.4360920510        7.4578881479        2.0516437497
  C        12.5110557223       -0.4852944969       -2.7249331818
  S         5.4633879223        6.2093140976       21.0949398421
  C         6.1884653304        9.2152476685       21.1934511041
  H        17.0694429361        5.1979256824        8.0441451889
  H        17.6973872447        4.3584907891        6.6499736380
  C        18.8978818460        5.9662308450        7.5656503394
  H         5.1067182017        7.8363856061        2.7651606850
  H         3.3925171762        7.4822237292        2.5139049490
  C         4.6685890306        8.4400303027        0.8907491742
  H        12.3343776970       -1.5470211835       -2.5883697817
  C        13.0933084069       -0.0704036445       -3.8866351010
  H         5.7459118321        8.7417134185       22.0154803913
  H         5.7860479129       10.1798462165       21.1177248292
  C         7.6599932914        9.2031320705       21.5441449457
  H        19.3010120412        5.2938853393        8.2231743388
  H        18.7583722720        6.9792365182        8.0195307750
  C        19.8801932794        5.8870754279        6.4101411622
  H         5.5516721128        8.1446105149        0.2858133564
  H         3.8762750744        8.2877997764        0.2241309103
  C         4.6345448180        9.9052702139        1.3656718572
  S        13.7657869897        1.4720327868       -4.2358633314
  C        13.0519445597       -0.9874472538       -5.0296362317
  H         8.0039213398        8.1819672037       21.8033372489
  H         7.6877325187        9.7366971865       22.4560144133
  H         8.3379987886        9.6721719756       20.7857949323
  H        19.8310852636        5.0518922869        5.7338618362
  H        19.6797095549        6.7885447014        5.8499934438
  H        20.8714818388        5.9936308523        6.8665812367
  H         3.6888873063       10.1592185105        1.9648560476
  H         5.5108722572       10.1977888058        1.9041651829
  H         4.6276913444       10.5707205173        0.5372210196
  C        14.0208655743        0.8854335340       -5.9211804624
  N        13.7148405677       -0.4480294736       -6.0590435794
  O        12.6250260078       -2.1557396166       -4.9705027546
  S        14.5448639521        1.8363180531       -7.3376390911
  C        13.7340385952       -1.1915004209       -7.2842532662
  H        14.0377238443       -2.1943751169       -6.9109008924
  H        14.5278512607       -0.8678738407       -7.8112037928
  C        12.4251237810       -0.9417108706       -8.0458574621
  H        12.2619423989        0.1525608006       -7.9012273777
  H        11.5476802082       -1.4646970008       -7.7185988408
  H        12.5315654604       -1.1075018253       -9.1472810637
