352
 i =    30400, time =    15200.000, E =       100.6500810335
  H        10.0673094599        4.9643996523       31.5753051251
  C        10.2957786611        5.8174596393       32.2010961532
  H         9.3245088606        6.2862793701       32.2350705646
  C        11.3217758544        6.6601450358       31.4559843748
  C        10.7357300263        5.2801220547       33.5168744360
  C        11.5098835352        6.1047426183       30.0656731848
  H        10.9961019939        7.7807397975       31.3402399039
  H        12.2668866397        6.6024570185       32.0636151395
  H         9.9106317561        4.6794553080       34.0721169155
  H        11.6110785302        4.7134305297       33.3899135353
  H        11.0189743959        6.1179387585       34.1859942371
  C        10.2656906670        5.9933802892       29.1543303024
  H        11.9665430651        5.1306140862       30.1751402978
  H        12.2498939729        6.7229156047       29.6203078053
  C        10.5778712857        5.5815809705       27.7025348219
  H         9.5179773506        5.3430050696       29.5785235113
  H         9.7478514197        6.9650457148       29.0877606149
  C         9.4985413740        4.8153648669       26.9216640410
  H        11.4896653083        5.0204744502       27.6860570628
  H        10.7127291945        6.4811815267       27.1227933078
  C         8.3088143647        5.7384370036       26.5437599749
  H         9.9599391840        4.3265264407       26.0289451414
  H         9.1526642668        4.0544261318       27.5846855886
  C         7.1428687367        5.0045282450       25.6865099952
  H         7.9258997222        6.1094213164       27.4770161908
  H         8.7014977635        6.4873478455       25.8799518565
  C         6.7005123992        3.6494334946       26.2931852698
  C         7.5604630562        4.2885331139       24.4042140061
  C         5.8863911480        5.9026721085       25.6988234526
  C         6.8810807309        2.5578737932       25.4438383653
  C         6.2052243316        3.2118210607       27.5211322599
  C         7.5510554247        2.9316340636       24.2761224255
  C         8.0156015455        4.9226853311       23.2010189713
  H         6.0802271522        6.8020733799       25.0516761258
  H         5.6525520346        6.2663237636       26.7172773145
  C         4.6008061794        5.2277679903       25.2172633134
  S         6.4492939891        1.0517616981       26.1529738192
  C         5.9909373402        1.8729814879       27.5934940139
  H         6.0248106389        3.9376588436       28.2997269236
  C         7.8964164033        2.3603587175       23.1160788037
  H         8.2311806752        5.9942878333       23.1720399087
  C         8.3736653018        4.2621037911       22.0934377307
  H         4.6837794919        4.7071341923       24.2330389357
  H         4.3367734004        4.3970573940       25.8581899638
  C         3.4015753589        6.0957665544       24.9460279773
  C         5.5271067662        1.1603415366       28.8146636941
  C         8.3655412402        2.9582762158       21.9333224471
  H         7.6383637164        1.2850487067       23.0581834825
  C         8.7654000651        4.7554281963       20.8410614772
  H         2.8074653813        5.5842220440       24.2579885177
  H         3.7481793469        7.0562210528       24.4671973973
  C         2.6047124754        6.2529909637       26.2891788674
  C         5.6724173780       -0.2537100289       29.0063509322
  C         5.2450935998        1.9224005394       30.0555428447
  C         8.7176904708        2.3359376964       20.6281662278
  C         9.0192199899        3.6996404759       19.9507567874
  S         9.0858294751        6.2718998320       20.1777350306
  H         2.0501028624        7.1758044291       26.1906273418
  H         3.3228873678        6.4899313890       27.0900555778
  C         1.7959554800        5.0760807941       26.7394450225
  N         6.1299962109       -1.0899032224       28.0688630629
  C         5.3549241294       -0.8285374098       30.2334701916
  C         5.0362329649        1.3223589566       31.3139408376
  H         5.0515944449        3.0189388613       30.0911060730
  C         7.5172743644        1.6946012375       19.8628273102
  C         9.9340388955        1.3196113421       20.6350056659
  C         9.3882310693        4.0840164282       18.6315970832
  C         9.4404778180        5.4880686175       18.6183918417
  H         1.1235758681        4.7740684831       25.9023092701
  H         2.3878192417        4.2223404762       26.9146311996
  C         1.0908514669        5.4584281149       28.0534438948
  S         5.8158955520       -2.5932905220       28.6081105321
  N         5.2998096724       -2.2206084775       30.1176479721
  C         5.1468059989       -0.1342847625       31.4300742359
  H         4.7558424467        1.9251925836       32.1787600823
  H         7.2723834019        0.8853604665       20.5363072017
  H         7.8204979281        1.1958492643       18.9367513143
  C         6.3245422512        2.6810484485       19.5864630482
  H        10.0208808207        0.9632372881       19.6873721336
  H         9.7574481684        0.3937349605       21.1858283152
  C        11.2929411116        1.8548476675       21.1039923113
  H         9.5170536232        3.3036116011       17.8591975351
  C         9.8384394179        6.2820110109       17.4320737701
  H         0.2475540179        4.7573450539       28.1680289814
  H         0.6656191433        6.4265064061       27.9711906000
  C         2.0288201200        5.2087531049       29.2834005160
  C         4.8483217444       -0.8643996844       32.7081987050
  H         6.6220734059        3.6332102406       19.2208351650
  H         5.7809852278        2.8583009231       20.4839603388
  C         5.4362503470        2.2869756893       18.4135580957
  H        11.2165917261        1.7897762544       22.1923501593
  H        11.3991173979        2.8271269018       20.6804584528
  C        12.5612299447        1.1180678701       20.6689445933
  C         9.8922450159        7.6606921533       17.3005709974
  C        10.2089515137        5.4890675177       16.1891683177
  H         2.5566237624        4.2280071579       29.1465390887
  H         2.7719152029        5.9449877193       29.2393630732
  C         1.2212022529        5.2724309495       30.5840983404
  H         5.0390493761       -1.8778386628       32.5866854652
  C         4.4798603400       -0.4538943040       33.9231928351
  H         5.6443146663        1.2693443060       18.0174683179
  H         5.7221907742        3.0622746510       17.6703612893
  C         3.9600998539        2.4279118712       18.6338608736
  H        12.5041435206        0.0466943264       20.9118813781
  H        12.6288307459        1.1603143771       19.5862277417
  C        13.8515131813        1.8511454122       21.0613778999
  N         9.6404954875        8.5811881695       18.2837750125
  C        10.2534115853        8.2152375323       16.0865591896
  C        10.4212816943        6.1138560379       15.0020658155
  H        10.3111442113        4.4315365077       16.3148706014
  H         0.2920470810        4.6145645375       30.3762035027
  H         1.8729085594        4.8096445553       31.3629946890
  H         0.8483226049        6.2562112414       30.8736192200
  S         4.2000264636        1.1848179216       34.4556136108
  C         4.4908917647       -1.4589057954       35.0704188394
  H         3.7527888622        3.2366086194       19.3432734756
  H         3.5695903301        2.6547425988       17.6503750254
  C         3.2771467372        1.1689056333       19.0566351044
  H        13.7914966429        2.7352747106       20.4350841995
  H        14.7557601324        1.2129028958       20.8089257639
  C        13.9794345638        2.2354258416       22.5190419452
  S         9.9232442551       10.0580307951       17.6439261391
  N        10.3490318021        9.6010239656       16.1245553485
  C        10.5303161929        7.5681347745       14.8647465160
  H        10.5710590185        5.5290976452       14.1581758487
  C         4.1492422940        0.5101067354       36.1191551789
  N         4.2807961855       -0.8036269711       36.2337196004
  O         4.7081263002       -2.6643011304       34.9121374669
  H         2.2693564216        1.4799421810       19.4330916796
  H         4.0017555342        0.9006575115       19.8906568157
  C         3.1494118026        0.1080566658       17.8794239876
  H        13.3502537060        3.1101232774       22.7509442207
  H        13.6010453401        1.4512366419       23.1511734393
  C        15.4064554868        2.5809393985       22.9388694825
  C        10.8221323295        8.2916996495       13.5864560725
  S         3.6159571445        1.4766431667       37.4712577250
  C         4.4831046349       -1.4670141408       37.5184685201
  H         2.8515059309        0.4159484053       16.9170524179
  H         4.1083320615       -0.3639582747       17.6872986712
  C         2.0467043897       -0.9436766557       18.1709056593
  H        15.4891325713        3.1701801285       23.8669803363
  H        15.8035727631        3.2766211355       22.1073699404
  C        16.1997837855        1.2809858830       23.1795815213
  H        10.6772754738        9.3159340158       13.5995246047
  C        11.3230574036        7.8704185761       12.3787051939
  H         3.7164928750       -1.1387573012       38.2971395597
  H         4.2129455691       -2.5464985684       37.4515234338
  C         5.9543543918       -1.3572913103       37.9310942481
  H         1.0800701565       -0.4214039549       18.4119657723
  H         2.4638287490       -1.3789065689       19.0808608645
  C         1.8065850091       -1.9496618194       17.0043281531
  H        15.9758637759        0.9946665657       24.1975126088
  H        15.9066628298        0.4808563980       22.5187805495
  C        17.7383295213        1.5567405005       23.0648477906
  S        11.8967632344        6.3212809135       11.9296144439
  C        11.5367216362        8.8306873093       11.2649587027
  H         6.3458855748       -0.4032444292       38.2980501772
  H         6.2061226449       -2.0852871239       38.6872993357
  H         6.4419952728       -1.6910045100       37.0790270117
  H         1.3977952262       -1.4503719905       16.1325061124
  H         1.1393932036       -2.7256513774       17.3467072226
  H         2.6656201163       -2.4733514076       16.6543518443
  H        18.2407516389        0.8072300091       23.7019752951
  H        17.9375403199        2.5068380235       23.4101742031
  H        18.2647586388        1.2937139567       22.1333188058
  C        12.1721803864        6.9043869832       10.2648761346
  N        12.0525608033        8.2395003594       10.1498887085
  O        11.1499628045       10.0072152400       11.4113792682
  S        12.9685448630        6.0079754876        8.9576417277
  C        12.2769375722        9.0727967473        9.0037244447
  H        12.4227749178       10.0594916997        9.2423443890
  H        13.2348354128        8.7587679782        8.5922390411
  C        11.1471372050        8.9466163991        8.0170059221
  H        11.2974647610        9.6866272771        7.2611861647
  H        11.1546268830        7.9344124806        7.5777631625
  H        10.1770257958        9.1508823440        8.4962202528
  H         4.3943007298        1.6340622845       12.7878759549
  C         3.7789265701        2.4936141108       13.0992060381
  H         4.5623395486        3.2489038860       13.2941523347
  C         3.0107399807        2.8473432678       11.7705548266
  C         2.9223351734        2.0910791703       14.2949381199
  C         3.9433006482        2.9703752941       10.6139779655
  H         2.6250472471        3.7891805268       11.9471296186
  H         2.2152459729        2.1428911244       11.6747939055
  H         2.9116262421        2.8819234682       15.0816905703
  H         3.4551667573        1.3188519079       14.8724722259
  H         2.0346911685        1.5881258840       13.8931263189
  C         4.5871158187        1.6060415471       10.1924713411
  H         3.4079742418        3.4103414737        9.8115858740
  H         4.6524990823        3.6665352097       10.9719491265
  C         5.0628400155        1.6714767463        8.7207217811
  H         3.9507166480        0.7659782661       10.2021101583
  H         5.4660851040        1.4067647355       10.7066691638
  C         6.2527646053        2.4516492240        8.4334526580
  H         4.1614198237        1.8272118419        8.1780062757
  H         5.3270242462        0.6632401356        8.5425010814
  C         7.5860416096        1.7161068011        8.9966007873
  H         6.3654354069        2.5346162795        7.3574855646
  H         6.1552547003        3.4114697712        8.9297737917
  C         8.7740771820        2.6331247990        9.2546743860
  H         7.8027224405        0.9450006668        8.2902774112
  H         7.4878200896        1.2118013048        9.9094803063
  C         8.4094324428        3.9394291620       10.0001994548
  C         9.2289709857        3.3600299230        8.0715370846
  C         9.9397087094        1.8390612988        9.9233780047
  C         8.7402206954        5.0308337459        9.2556144646
  C         7.8797967052        4.3080272591       11.2684774943
  C         9.2532535371        4.7326780334        8.0446330973
  C         9.7135177082        2.7928904639        6.9029863420
  H         9.6911407988        1.1528489068       10.7431624544
  H        10.3966893645        1.1658501639        9.2526276525
  C        11.0758050149        2.8093546435       10.3923644940
  S         8.4406672177        6.5225680723       10.0758883385
  C         7.8739478405        5.6850203739       11.4313840483
  H         7.5912216824        3.6012358270       12.0427605857
  C         9.8029358592        5.3785972099        6.9642168910
  H         9.5946851847        1.7068753630        6.7576729767
  C        10.2287625297        3.4141571306        5.8272890746
  H        10.7016925391        3.7563017325       10.8146063287
  H        11.6465905836        3.0574719392        9.5128372529
  C        12.2203042396        2.2358491183       11.2434613143
  C         7.4549644102        6.3649946531       12.7244736555
  C        10.2047135354        4.7566889656        5.7573307896
  H        10.0626032684        6.3926522844        6.9568686697
  C        10.6606007054        3.0293263302        4.5899439912
  H        12.9829817425        3.0256125324       11.1235119867
  H        12.6896614925        1.3877749434       10.8462675355
  C        11.9089757998        1.8855575293       12.6581790534
  C         7.5024214261        7.7234713312       13.0550290324
  C         7.0845191857        5.4720813881       13.8455644023
  C        10.7118764602        5.4306497934        4.5372960606
  C        10.9755933430        4.1228505890        3.8388695159
  S        11.0134909685        1.5435507685        3.9209302752
  H        11.3432074586        2.7429882528       13.0957487888
  H        11.1294142486        1.0581903431       12.7103658310
  C        13.1925141223        1.7874714774       13.4178038643
  N         7.8602868912        8.7195804938       12.1408511812
  C         7.1744843661        8.2064616476       14.3161829305
  C         6.7624206612        5.9482981146       15.0454996036
  H         6.9627105201        4.4104495338       13.7443501796
  C        12.0355799315        6.2588043135        4.7029576802
  C         9.7401517917        6.3341621544        3.7306966882
  C        11.4588153914        3.7333539197        2.6132354305
  C        11.3509689043        2.3833625514        2.4497717321
  H        13.5686774898        2.8155841863       13.6354064377
  H        13.8424613999        1.1697907594       12.8403308044
  C        12.9883426576        1.0909573209       14.7288698455
  S         7.8528512860       10.1484675376       12.9320201809
  N         7.4156417034        9.5907841447       14.3881220738
  C         6.8007007086        7.4050218203       15.3792504530
  H         6.4047290961        5.1305595855       15.6799604493
  H        11.7883573080        7.0818711776        5.3717033445
  H        12.4773504591        6.6570476125        3.7449345703
  C        13.1416938105        5.4630903252        5.3929463257
  H         9.4159004078        7.2008511117        4.2823361370
  H        10.1884709903        6.6947531843        2.8102127576
  C         8.5603799816        5.4389691553        3.2503358851
  H        11.8743331439        4.4888035199        1.9778996593
  C        11.5406712358        1.6460660112        1.1590814959
  H        12.3718270823        0.1966133073       14.5409282366
  H        13.8742118858        0.5984609423       15.0232219012
  C        12.6085064257        2.0244020277       15.8512236008
  C         6.5707967703        8.0317817904       16.6275557216
  H        12.8019967484        4.7831930472        6.1854358397
  H        13.4883341765        4.7965364841        4.6565704252
  C        14.3942584375        6.3007078205        5.7955796901
  H         7.9598954694        5.0193732800        4.0535146576
  H         8.8923053206        4.4946696716        2.6836013992
  C         7.5804976051        6.1830056395        2.3143320040
  C        11.6667337998        0.2596783359        1.0112211091
  C        11.8871141458        2.3626993739       -0.1157800807
  H        11.6012771960        1.7809127742       16.2119546731
  H        12.3805628518        3.0147003736       15.4467067525
  C        13.7194499863        2.1823731643       16.9081951812
  H         7.1317076776        8.9154972629       16.5889090732
  C         6.2143263559        7.6332983659       17.8939020511
  H        14.1579711899        6.9679632669        6.6171373994
  H        14.6843741020        6.8590375604        4.8869538010
  C        15.4733667174        5.3707019873        6.2681215304
  H         8.2572120820        6.7839301509        1.7310116001
  H         6.9968105463        5.5533591624        1.6703494478
  C         6.5049545253        6.9620712780        3.1421394241
  N        11.5398804236       -0.7181083341        2.0289651591
  C        11.9198314342       -0.3710417934       -0.2072954809
  C        12.2276877855        1.7215175220       -1.3219294496
  H        11.7083319517        3.4190920948       -0.0434140978
  H        13.5372054941        2.9423931587       17.5803117925
  H        14.7533687034        2.5126994940       16.4399773482
  H        13.8782369093        1.2704780174       17.5530970968
  S         5.6489161691        6.0723047876       18.4543863437
  C         6.2944607195        8.6421025615       18.9601720942
  H        15.0959779503        4.8207349814        7.1439474118
  H        15.5496015834        4.6212996933        5.4654453043
  C        16.7845745804        6.0912720071        6.5069480962
  H         7.0791457244        7.2930568805        4.0038741440
  H         5.8422566435        6.1830370695        3.4137084653
  C         5.9328088071        7.9737713840        2.1500384403
  S        11.6725617799       -2.2062132842        1.3598268475
  N        11.8678374390       -1.7340914249       -0.1956965614
  C        12.2013818002        0.3108495905       -1.4178105220
  H        12.4109601533        2.3875139274       -2.0922548518
  C         5.5199420804        6.7924333346       20.0907269348
  N         5.9917103755        8.0953341788       20.1642178374
  O         6.4940026375        9.8634610008       18.7072612915
  H        17.0530317986        6.6218862206        5.5856267165
  H        16.5743597252        6.9131018254        7.2477897351
  C        17.8459068628        5.1034145474        7.0494565252
  H         6.7034726806        8.6259657394        1.7927752655
  H         5.6129712438        7.5735458863        1.2072820229
  C         4.8186648480        8.7835532590        2.8238735759
  C        12.5598393462       -0.4723678894       -2.5971957101
  S         5.0721834667        5.9657079316       21.6426612550
  C         6.0048588985        8.9221581076       21.3810687110
  H        17.3845444587        4.4767035769        7.8814673123
  H        18.2369943158        4.4551341179        6.2262085877
  C        19.0496258615        5.8390296114        7.6809427297
  H         5.0062828744        9.0701142164        3.8555238023
  H         3.8909257643        8.2560130044        2.8970382973
  C         4.5053484995        9.9929389215        1.9662799356
  H        12.3372245973       -1.5333906151       -2.5123354480
  C        13.0655028623       -0.1265551455       -3.8197818791
  H         5.2416435232        8.5015328806       22.0446590213
  H         5.5776726102        9.8892702454       21.1188398321
  C         7.3861222785        9.0855509172       21.9671633620
  H        19.4051781804        5.3389424497        8.6029585767
  H        18.9248183882        6.8951101944        7.8583661527
  C        20.2023969120        5.6817694032        6.7123164243
  H         3.8711946758       10.5422517529        2.6063497320
  H         5.3664941237       10.5811986822        1.7161650074
  C         3.7997988188        9.5771641346        0.6294471703
  S        13.4599305862        1.4703780907       -4.3402258069
  C        13.3526322461       -1.1968199752       -4.7868487437
  H         7.7639805434        8.1842997558       22.4705664950
  H         7.2504639655        9.7718619108       22.7704987645
  H         8.1626475050        9.4620389915       21.2405795205
  H        20.0534952950        6.2281657666        5.8387563050
  H        21.0152732861        6.3345816769        7.2181287725
  H        20.6021938862        4.6641888705        6.5565301036
  H         3.8451887016       10.3748486938       -0.0546726997
  H         4.3335576349        8.7604808884        0.0818149904
  H         2.7649250607        9.2519160355        0.6320468551
  C        14.0181619921        0.6712418696       -5.8501763189
  N        13.8678486207       -0.6571568345       -5.8583122934
  O        13.3363879556       -2.4437672902       -4.5368182391
  S        14.7916476807        1.5749116045       -7.2135820916
  C        14.1272768881       -1.4049103068       -7.0016395355
  H        14.2891241278       -2.4549937222       -6.8231461851
  H        15.0339499555       -1.1470487888       -7.6024923185
  C        12.9946534288       -1.2800243140       -7.9043717310
  H        12.7408483817       -2.3096666143       -8.3012876080
  H        12.9664684101       -0.5219341522       -8.7035207055
  H        12.0882043991       -1.1058035168       -7.2967412878
