352
 i =   126600, time =    63300.000, E =        99.3515117651
  H        10.0558141204        6.4775894574       32.1329437085
  C        11.1921718849        6.2899264516       32.2286902884
  H        11.5831083615        7.2255429564       32.4404836963
  C        11.7572373447        6.0646762062       30.7479411201
  C        11.4089031914        5.1684417785       33.2952407792
  C        10.8441702781        5.3111317915       29.7840480921
  H        11.9366351751        6.9420778813       30.1211846713
  H        12.6902170520        5.4632329315       30.8287939240
  H        10.5799068074        4.4951818856       33.1789369365
  H        12.3598448249        4.6746112400       33.2323133573
  H        11.2760659921        5.4844738373       34.3443238744
  C        11.5319469452        5.2440628575       28.4088678757
  H         9.8454469638        5.7908271201       29.7381994946
  H        10.6147163621        4.3273230991       30.2446367030
  C        10.9115209574        6.1041863441       27.3303058135
  H        12.6070362201        5.3281342689       28.3788012233
  H        11.4768375717        4.2279346272       28.1553036815
  C         9.9011887118        5.2928789357       26.6002518125
  H        11.7261341682        6.3996746188       26.7292598017
  H        10.3941471841        6.9434588572       27.8633690274
  C         8.7506141846        6.1921067400       25.9602772855
  H        10.2658973105        4.6197152416       25.8014457799
  H         9.3497330720        4.7066489795       27.2592906736
  C         7.4857333938        5.3951672942       25.3430911410
  H         8.4642543245        6.9361513249       26.6432001378
  H         9.1886337074        6.8584114460       25.2082373066
  C         7.2046020553        4.0987050728       26.0829780238
  C         7.8634661886        4.6693819579       24.0788696848
  C         6.2305506047        6.2112362805       25.2808163068
  C         7.4342234673        2.9926367742       25.2822271610
  C         6.8378757005        3.6577891322       27.3818158064
  C         7.8352152886        3.3218083158       24.0335251211
  C         8.2160065026        5.2061859314       22.8598557052
  H         6.4789817455        7.1043128311       24.6930936218
  H         5.9628437184        6.4161435053       26.2955240091
  C         5.0329763773        5.5860924504       24.4746435446
  S         7.0428340563        1.4920997177       25.9429789919
  C         6.6699236876        2.3161594979       27.5202807166
  H         6.6955393794        4.4630508035       28.0971050217
  C         8.1380252700        2.6472722244       22.8804113711
  H         8.2474848726        6.2741938177       22.6892152710
  C         8.6792702864        4.5764537383       21.8235116191
  H         5.2928917068        5.2093753971       23.4070436593
  H         4.7998196474        4.6365102675       24.9670762522
  C         3.6736084786        6.3930139508       24.5087597563
  C         6.2598914198        1.6155329886       28.7687682073
  C         8.5717909752        3.2414518284       21.6901669108
  H         8.1759486334        1.6329730135       22.8877393549
  C         9.0848051418        4.9428787040       20.5997250926
  H         2.8953554652        5.8966595238       23.9112505198
  H         3.7888956887        7.4401695653       24.1386542801
  C         3.0302997272        6.4263365391       25.8990442102
  C         6.3063725240        0.1919076401       29.0316234971
  C         5.7979735400        2.4653376863       29.8961118540
  C         8.9969847185        2.5088017584       20.4612646579
  C         9.3253353051        3.8315232398       19.8107952397
  S         9.3908405331        6.5190246463       19.9071783087
  H         2.2465694646        7.2494693317       25.8960599311
  H         3.8015032633        6.7529012474       26.6059293489
  C         2.4040401648        5.0908900421       26.4085951452
  N         6.7912326235       -0.6869611677       28.0946081495
  C         5.9557753117       -0.3719247041       30.2572080123
  C         5.4915245391        1.8503428291       31.1259839504
  H         5.9345939178        3.5118829146       29.9639322670
  C         7.8138751900        1.8638369659       19.6939797681
  C        10.2010432948        1.6346337861       20.7141220095
  C         9.7890640510        4.2457848532       18.5227437661
  C         9.8125798205        5.6236661940       18.4472291526
  H         1.8378943206        4.6055695129       25.6179635635
  H         3.2200272523        4.3914267953       26.5841301497
  C         1.4077660201        5.3097582319       27.5129345369
  S         6.7484824995       -2.1800751598       28.8282785158
  N         6.1374611550       -1.7351501754       30.2167721942
  C         5.5108672207        0.4052737628       31.3612361918
  H         5.3514339448        2.5295906188       31.9172264056
  H         7.6107570534        0.9103765216       20.2411656825
  H         8.1707712715        1.5067931552       18.6487010540
  C         6.5726884726        2.6837348865       19.5507926158
  H        10.5465559831        1.1335886561       19.8683797846
  H         9.9258890965        0.7815513387       21.4152645869
  C        11.4437824023        2.4934230045       21.1436591575
  H         9.9718236170        3.4871994762       17.8211012076
  C        10.1761984833        6.3440408703       17.1540070128
  H         0.6647044640        4.4613980094       27.5134824869
  H         0.7584064237        6.1961487761       27.2293139496
  C         1.9609754296        5.5133928219       28.9392946059
  C         5.3948376979       -0.2328075536       32.5881599664
  H         6.7565371064        3.5256333245       18.9963193374
  H         6.0734954400        3.0152621860       20.4537437386
  C         5.5265314583        1.8616348107       18.9233195399
  H        11.1308998325        3.1517833675       21.9146374646
  H        11.7880905491        3.1265196990       20.3105523391
  C        12.7053784390        1.6462078841       21.5215489954
  C        10.2643474486        7.7885145698       17.0801537048
  C        10.3673148271        5.5754311682       15.9020708313
  H         1.5943570020        6.4759643235       29.4969068538
  H         1.4553465500        4.6438803085       29.4138950375
  C         3.4887725703        5.3322475962       29.1638433567
  H         5.5663631104       -1.3240992208       32.5973838129
  C         5.0211978326        0.1697808075       33.8581308342
  H         5.0632018704        1.1580042269       19.5762646198
  H         5.9060295990        1.3287227559       18.0638538069
  C         4.4073069481        2.6834732619       18.3886282576
  H        12.4473276498        0.6896932976       22.0514115536
  H        13.2819359010        1.3674029038       20.6352137703
  C        13.7088770130        2.4022731660       22.4466561539
  N        10.2077212711        8.6983887762       18.1215633033
  C        10.6136347459        8.4078413655       15.8338019487
  C        10.6930654717        6.2500444473       14.7269514679
  H        10.2173013343        4.4636829342       15.8871796329
  H         3.8596817703        4.3756006102       29.0363141492
  H         4.0376429705        6.1148408524       28.6586317561
  H         3.6334725898        5.5325949714       30.2426331153
  S         4.7125111687        1.7496297490       34.4402299416
  C         5.0364834202       -0.8838728356       34.8950308451
  H         4.1026278691        3.4162234788       19.1255861523
  H         4.7644753827        3.1884688541       17.5408907631
  C         3.1263936196        1.9249431920       18.0755024343
  H        13.4021627023        2.3852322684       23.4301345551
  H        13.6858050131        3.4182632851       22.0995571255
  C        15.0643953738        1.8940992388       22.2859479351
  S        10.1786553673       10.2242244250       17.4902659604
  N        10.6409279866        9.7817846318       15.9383782758
  C        10.8522385505        7.6814125359       14.6456005473
  H        10.7425133265        5.6492839508       13.8036840353
  C         4.3783786118        0.9487493229       36.0195363073
  N         4.5901279612       -0.3961982113       36.0438326315
  O         5.3411974645       -2.0886894165       34.7126457909
  H         2.3501952677        2.6123438024       17.6394959733
  H         2.6202208781        1.7002936998       19.0660388261
  C         3.2544839685        0.7289974829       17.1909836640
  H        15.1547243784        0.9871355859       22.9003493852
  H        15.2653878268        1.5976616089       21.2355064298
  C        16.1227848458        2.8841076100       22.7304619360
  C        11.2060606360        8.4281308797       13.5004547220
  S         3.8364113210        1.7260980599       37.5177266054
  C         4.6465653668       -1.1544385550       37.3043033312
  H         2.5229320667        0.8284067881       16.4548155004
  H         4.2497007986        0.7625601356       16.7401784689
  C         2.9817795863       -0.5021032423       17.9993190650
  H        15.8681531768        3.2186585368       23.7228372793
  H        16.1099031439        3.8395278677       22.1324877730
  C        17.4798676099        2.0870244362       22.6736113293
  H        11.1565505816        9.4787311547       13.6775137317
  C        11.7363325430        8.0900661314       12.2785549029
  H         3.7953001684       -1.0211868012       38.0126392889
  H         4.5877126756       -2.2319355571       37.1010545353
  C         5.9432334833       -0.9438799275       38.1069722408
  H         3.6505429050       -0.4581275983       18.8372024063
  H         3.3583362916       -1.3070905102       17.4076664559
  C         1.5233256823       -0.7926048952       18.3663429464
  H        17.4225281959        1.1534777438       22.0361316119
  H        18.2784442284        2.6178681584       22.1575361750
  C        17.8890540698        1.7558728758       24.0506713158
  S        12.2255121204        6.5622690625       11.6055277420
  C        11.9888850059        9.1755134259       11.3010984532
  H         6.8008917350       -0.9906523113       37.4436129389
  H         5.9137704654       -0.0173118833       38.5779793122
  H         5.9831395220       -1.7016180048       38.8361617238
  H         0.7894372495       -0.0284124733       18.2110628440
  H         1.4347011749       -1.0781055390       19.3699398653
  H         1.1303141692       -1.5779499399       17.8259984563
  H        17.1411102179        1.0864187007       24.4863832077
  H        17.8088215023        2.6238920849       24.7217625795
  H        18.8464012813        1.2385864790       24.0009564539
  C        12.6068184795        7.3897347508       10.1024438042
  N        12.4121356817        8.6847299258       10.1337504063
  O        11.8119204346       10.4026119223       11.5184761666
  S        13.3278269410        6.7032660515        8.6801662924
  C        12.4932503001        9.5078301282        8.9281338939
  H        12.7266531656       10.5119658182        9.2121769443
  H        13.2157243226        9.2010714326        8.3114117871
  C        11.0778063661        9.4670558865        8.2563531568
  H        10.8812649515        8.3744149817        8.0827082426
  H        10.3263354884        9.8187812430        8.9714170589
  H        11.0469399072       10.0406809910        7.2857290568
  H         3.1278367122        3.7264928573       12.9286100743
  C         3.4717399074        2.7547808265       12.8232010736
  H         2.9670416847        2.1912379610       13.5370311677
  C         3.0807311752        2.3424835521       11.3818277724
  C         4.9733889457        2.7159059814       13.2013820138
  C         3.9302865102        2.9115113335       10.1670261145
  H         2.0198952886        2.5996552523       11.3068001296
  H         3.1580519313        1.2256914618       11.2778731942
  H         5.1000561590        3.4037819319       14.0551236901
  H         5.5879698288        2.9230656318       12.3546679749
  H         5.2642454670        1.7321458069       13.5188341812
  C         4.7106915436        1.7185909813        9.6207032435
  H         3.2983697474        3.3688707481        9.4215171052
  H         4.6367637791        3.6482198105       10.6013035152
  C         5.4810142951        1.8563971899        8.3510032080
  H         4.1184652820        0.8184461218        9.4804484457
  H         5.4582018416        1.4842487522       10.3797692512
  C         6.7764530777        2.7159644512        8.5445286885
  H         4.9518391107        2.3980425924        7.5895867492
  H         5.7616018382        0.9018759499        7.9044187370
  C         8.1041640719        2.0455124855        8.8073079121
  H         6.9605948074        3.1384611422        7.5420492918
  H         6.6407236899        3.4421487740        9.2130674877
  C         9.2869165387        2.9393300761        9.0800232327
  H         8.3222425193        1.3457470373        8.0051605480
  H         7.9701503060        1.3744339639        9.6764845505
  C         9.0183098264        4.2847970722        9.7338119699
  C         9.7251197367        3.6410606644        7.8016817030
  C        10.4577464574        2.2327200862        9.8403459811
  C         9.2138686655        5.3406815976        8.8784501737
  C         8.5732903982        4.6222434872       10.9886967565
  C         9.7153055890        4.9727010371        7.6613161178
  C        10.2749338842        3.0073118119        6.7329877842
  H        10.0734176491        1.8769296806       10.7769308817
  H        10.6993060213        1.3228753969        9.1821221042
  C        11.7376124239        3.0485758182       10.0645352319
  S         8.8239172488        6.8140558028        9.6678994441
  C         8.3215699125        5.9873436526       11.1026653515
  H         8.3792549573        3.8100229997       11.6706978372
  C        10.0814676588        5.6110534919        6.5258867589
  H        10.2542084255        1.9583601609        6.7582089106
  C        10.6793915624        3.6327044037        5.6231181113
  H        11.5570622417        4.0495357746       10.4006173522
  H        12.1195296326        3.0150210669        9.0832777997
  C        12.5591834479        2.3044061255       11.1206191230
  C         7.9502472128        6.6974917661       12.3609532713
  C        10.6280628884        4.9447301400        5.4494172498
  H        10.0118330667        6.6854702725        6.5134257308
  C        11.0855234094        3.1494970618        4.3779316701
  H        13.5515213618        2.8145250868       11.1496229049
  H        12.8099148165        1.2957793016       10.8158430296
  C        12.0607773197        2.3189526362       12.6334136938
  C         8.0273857330        8.1001644992       12.6012420476
  C         7.5015055521        5.8114275228       13.5134898619
  C        11.1266149802        5.5089041887        4.1719931049
  C        11.3412007216        4.1351276232        3.4816487484
  S        11.3872260441        1.5782834577        3.8512736868
  H        11.4698422875        3.1623977813       12.8851551596
  H        11.3361907029        1.4959976936       12.7586496321
  C        13.1798497964        2.2343039804       13.6539420852
  N         8.4526114037        8.9697324259       11.6987764841
  C         7.6958508654        8.6209390052       13.8429449598
  C         7.2860138942        6.3354633668       14.7583537239
  H         7.3228380788        4.8068210537       13.3878566504
  C        12.4445327659        6.2856119592        4.3681635992
  C        10.0645954949        6.3487583948        3.4760829852
  C        11.7412828250        3.5864488666        2.2112660997
  C        11.7979215792        2.1960269250        2.3045484651
  H        13.9435406146        2.9697571502       13.4877585035
  H        13.6700015759        1.2783594048       13.3994930143
  C        12.6881003843        2.1591870751       15.1284454378
  S         8.4497416101       10.4600033564       12.4320163284
  N         7.9376332880        9.9757832041       13.8320429187
  C         7.3790382205        7.8008718075       14.9911869440
  H         6.9502189094        5.7236649942       15.6279085437
  H        12.2176935137        7.2493984926        4.8398656212
  H        12.7609490887        6.5930553902        3.3740953141
  C        13.5822692290        5.5613861315        4.9981767930
  H         9.8784665389        7.0696249140        4.2810382854
  H        10.3767229395        6.6962036840        2.5177404428
  C         8.7378196940        5.6706818680        3.1996857059
  H        11.8817251765        4.2585663904        1.3993088552
  C        12.0649848555        1.3301794795        1.1123993292
  H        11.8160111120        2.7857450953       15.2053787340
  H        12.3784525491        1.1352635371       15.3936587016
  C        13.8276217355        2.4334925560       16.1097177420
  C         7.0445605242        8.4688978731       16.2097969227
  H        13.2526593199        5.0794732087        5.8672701759
  H        13.9211015502        4.7363026224        4.3783115826
  C        14.7284728052        6.4745743743        5.3193440322
  H         8.3319961222        5.4088134596        4.1681410751
  H         8.8604300732        4.7889390678        2.5943077039
  C         7.5831676515        6.5808049780        2.5841716747
  C        12.0373536811       -0.0767957078        1.0453395169
  C        12.3133090361        1.9515953033       -0.2187439047
  H        14.4109953126        3.3408489667       15.8037210112
  H        14.5660418269        1.6427122882       16.1004396942
  C        13.3337931632        2.6305866826       17.5514727719
  H         7.2310185930        9.5492599617       16.1733041687
  C         6.7774156415        8.0537722256       17.4824983135
  H        14.3625907123        7.3296555044        5.9070240758
  H        15.2665894880        6.8615466424        4.4631947193
  C        15.7172769632        5.6535753484        6.1055773299
  H         7.0803079456        7.1492346083        3.3519512471
  H         7.9294821363        7.3038032495        1.7885409809
  C         6.5083356031        5.6665799906        1.9533993375
  N        11.8819435643       -0.8323551741        2.2573003110
  C        12.1572417134       -0.9038926712       -0.0593272143
  C        12.5620806601        1.1739576949       -1.3320349609
  H        12.3829406790        2.9933427796       -0.3612867011
  H        14.0918385817        2.3520461356       18.3422974249
  H        12.3732652312        2.0850720258       17.8030723509
  H        13.0590311362        3.6877586312       17.6334601893
  S         6.3876344823        6.4815434716       18.0253484722
  C         6.6459062323        9.1067107586       18.5129522799
  H        15.2837799194        5.3186489920        7.0323595713
  H        15.9395149717        4.7161394367        5.5904140961
  C        17.0220976784        6.3160422410        6.4144999480
  H         5.9828265172        4.9727010669        2.6153818906
  H         7.0095782578        4.9018024724        1.3333198918
  C         5.4828009762        6.4276477218        1.1216613634
  S        11.7962552819       -2.3998674090        1.8324401821
  N        11.9333241669       -2.2552347996        0.1817797280
  C        12.4365103919       -0.3463033359       -1.3811752533
  H        12.7290528214        1.7676886651       -2.2277136185
  C         6.0872206436        7.2255178776       19.5847665553
  N         6.1826854073        8.5760124243       19.6482545113
  O         6.8433328006       10.3453380429       18.3761747296
  H        17.3661706595        7.0529010136        5.6325465211
  H        16.9332225562        6.8780201086        7.3519685964
  C        18.0487550099        5.2836638726        6.7076107284
  H         6.0623641784        6.8899022775        0.3128548429
  H         4.7727277653        5.7790585548        0.5537581562
  C         4.7305377144        7.4673203083        1.9689772106
  C        12.5246907787       -1.1609324156       -2.5365541204
  S         5.7539927569        6.3835330947       21.0880470805
  C         6.1394730585        9.4243596922       20.8424416325
  H        17.6505894605        4.4992384767        7.4582704716
  H        18.2452041015        4.7323301444        5.8514379702
  C        19.3978196968        5.9298300217        7.2406515562
  H         5.3865972324        8.0922607050        2.6931717174
  H         4.0806285007        7.0013859115        2.6852386395
  C         3.8005635386        8.3279056631        1.1149909532
  H        12.2190858749       -2.1540727489       -2.3098339682
  C        13.0388805086       -0.9359148861       -3.8128255047
  H         5.4748927349        9.0050077869       21.5642338034
  H         5.7187181384       10.4529595241       20.6819908927
  C         7.5318974069        9.5060893865       21.3795307710
  H        19.7329977353        5.3302456863        8.0565212272
  H        19.1248189057        6.9122930831        7.6525877368
  C        20.4419405731        5.9145802020        6.1177640461
  H         3.8235353300        7.9630665455        0.1103805424
  H         2.7201635895        8.1591721297        1.3965765052
  C         4.0668704418        9.7377739026        1.0748517109
  S        13.5566058954        0.5584530483       -4.4055283837
  C        13.2246190746       -2.1226395624       -4.6718721458
  H         7.9191112812       10.4666576776       21.0381854335
  H         8.0457209547        8.6679650826       20.9661083879
  H         7.6517311988        9.3531545967       22.4916277204
  H        20.0712519842        6.4513508000        5.2102726560
  H        21.3774516733        6.3385963625        6.4830090616
  H        20.5993253655        4.8195210595        5.9667665829
  H         3.4995318703       10.1534034630        1.9187796392
  H         5.0923074329       10.0379879765        1.1505830837
  H         3.6263355932       10.1532317002        0.1779128331
  C        14.0813619409       -0.3149027706       -5.8254498331
  N        13.9199392367       -1.6639122900       -5.7666365340
  O        12.9120582209       -3.2784563429       -4.3295498413
  S        14.9250674084        0.2913775372       -7.2931980171
  C        14.1377974778       -2.5063577396       -6.9381030038
  H        14.1944576181       -3.5312243383       -6.5017921106
  H        15.1014828889       -2.2935763153       -7.4276285811
  C        12.9219723135       -2.3142297708       -7.8624405221
  H        12.4080639914       -3.2802772234       -7.9746586069
  H        13.1605931449       -1.9649982504       -8.8843356026
  H        12.0572610685       -1.6969479127       -7.5103333234
