352
 i =     4500, time =     2250.000, E =       187.6348159907
  H        12.1168815845        6.3009247416       32.4202168830
  C        11.4260270496        5.4629605777       32.5041690810
  H        11.8464943938        4.4881135477       32.4508364728
  C        10.4250604184        5.6349313677       31.4065121601
  C        10.8151651607        5.6367906503       33.9127621042
  C        10.8723856530        5.0371265135       30.0747294795
  H         9.5170489420        5.1472363144       31.7697103808
  H        10.2106497986        6.5648539622       31.1727699632
  H        11.2147743496        6.4932156510       34.3952558702
  H         9.7290096705        5.6188299523       33.9936617945
  H        11.0781992260        4.7183337106       34.3781196083
  C        10.2872556579        5.8310666334       28.8767039987
  H        10.5106427075        4.0363508614       29.7965962819
  H        11.8568773122        5.1080340562       29.8400315097
  C        10.7477683780        5.4083892379       27.4462520490
  H         9.2457561384        5.8354493773       28.7947625810
  H        10.4388274903        6.9256990860       28.8028405568
  C         9.6058606468        4.7054472645       26.7071658240
  H        11.6170664807        4.7479231468       27.2846621855
  H        10.8066495853        6.2979101808       26.8447563345
  C         8.6348472071        5.6877348959       25.9893821936
  H         9.9307152651        4.0224283881       25.8828385852
  H         9.2140375605        4.1728498048       27.5370748413
  C         7.4705057046        5.0579036284       25.3388574970
  H         8.2585238995        6.2650056069       26.8026658516
  H         9.1807321478        6.3269833793       25.3825566430
  C         7.1201806385        3.6672629035       25.9093232332
  C         7.8593061120        4.3317820937       24.0138000088
  C         6.1950933942        5.9364604709       25.2542357595
  C         7.3391516120        2.5617425286       25.0374103355
  C         6.6022469588        3.2035058600       27.1366908653
  C         7.8109873970        2.9921451189       23.8074351577
  C         8.3698583171        4.9995013504       22.9020021531
  H         6.2694311270        6.9498856859       24.9244287064
  H         5.9179550778        6.2069793407       26.2760930567
  C         4.9543735163        5.2224359599       24.6958263367
  S         6.8557325046        1.0830917782       25.7514331460
  C         6.4278829404        1.8911303370       27.1732447226
  H         6.4015943455        4.0587590995       27.8276637496
  C         8.1102107649        2.3960078176       22.5983744550
  H         8.6354027585        6.0502964047       22.9225879265
  C         8.6426669225        4.3593644074       21.6731477014
  H         5.1434735289        4.9230218011       23.5969810953
  H         4.8432981498        4.2725086196       25.1554776939
  C         3.6877135200        6.0477419861       24.5429541491
  C         6.0311088352        1.1124679681       28.4595641862
  C         8.5416697023        3.0492891670       21.4259186685
  H         8.0489916996        1.3058947795       22.6082380015
  C         9.0911730758        4.8067896794       20.4293707451
  H         2.9731086384        5.7172417136       23.7154340341
  H         4.1628074912        6.9458626309       24.1727872065
  C         3.0017427715        6.1778240187       25.8720791303
  C         5.8888379994       -0.3078563813       28.7427536093
  C         5.6105956041        1.8800695633       29.6163446024
  C         8.9823282806        2.3607234815       20.2105721486
  C         9.4341673951        3.7559169676       19.6049596455
  S         9.3407474266        6.3484766269       19.7525429776
  H         2.2312631660        7.0167141422       25.7684684743
  H         3.6000883531        6.6558914791       26.6007575682
  C         2.3517334452        4.8707375228       26.3626091044
  N         6.1142563071       -1.2797259292       27.7691998493
  C         5.7023094687       -0.7513586529       29.9780682602
  C         5.3193276439        1.3184119944       30.8277628890
  H         5.7272888775        2.9281245910       29.5881090276
  C         7.7252672263        1.7410487855       19.5117717663
  C        10.2077062138        1.3980059842       20.3115599005
  C         9.7691022393        4.2236687265       18.3248691871
  C         9.8084868208        5.6149054610       18.3063211881
  H         1.7961184731        4.4532077556       25.4079381823
  H         3.1332428533        4.0070468631       26.4971546060
  C         1.3312387258        5.1629553897       27.4842611824
  S         6.1997922264       -2.6876178446       28.4723378134
  N         5.7548956360       -2.2101365653       29.9262535209
  C         5.3724637942       -0.0703245696       31.1160663958
  H         5.0891744679        2.0838484065       31.6281967920
  H         7.3235779172        1.0205777256       20.3122837447
  H         8.0424558831        0.9980755793       18.7484461943
  C         6.5106737011        2.6885915775       19.2037606663
  H        10.2996187965        0.8611023575       19.3277427364
  H         9.9801541101        0.5641584868       20.9709798611
  C        11.5318956266        2.1773251341       20.6779270180
  H         9.8617967556        3.4262647756       17.5845139887
  C        10.1738622804        6.4172047551       17.0312348419
  H         0.4186983342        4.5736771379       27.4895627555
  H         0.8931838616        6.0857074566       27.2209322269
  C         1.9866657229        5.4133564602       28.7668145026
  C         5.1293435689       -0.6935347102       32.3645294609
  H         6.8907339766        3.4936822283       18.5645496662
  H         6.1806977910        3.0997814073       20.1423165259
  C         5.3070201510        2.0336189969       18.6430823464
  H        11.3863546770        2.7122696536       21.7119889190
  H        11.9614999936        2.9066883134       19.9450181551
  C        12.5944007154        1.1593326486       20.9474660325
  C         9.9688311663        7.8070663764       16.8314587452
  C        10.3875315508        5.7169952629       15.7517283968
  H         2.6986499759        4.5648043308       29.2154260438
  H         2.5509088816        6.4005395004       28.5500253877
  C         1.0464255226        5.7755379240       29.9011879185
  H         5.1809757134       -1.7721452739       32.3088724379
  C         4.6972130586       -0.2084079181       33.5674631516
  H         4.8944733466        1.3726947502       19.4320856898
  H         5.5433203924        1.4127436805       17.7181996812
  C         4.3175512395        3.0608093462       18.1289978427
  H        12.2925951669        0.4277633264       21.6905696312
  H        12.7845020504        0.7619385855       20.0382822829
  C        14.0415427183        1.5158620169       21.4867518165
  N         9.7917967784        8.5832759842       17.9110342043
  C        10.2988728177        8.4259040728       15.6927755799
  C        10.6029646524        6.3984252091       14.5000207389
  H        10.5619005574        4.6318388491       15.7971987786
  H         0.7565593851        4.9350668595       30.4816095514
  H         1.6376349084        6.4639649832       30.6032827194
  H         0.1495449428        6.2236672946       29.5609884462
  S         4.2920175514        1.3630522928       34.1368164868
  C         4.7759371361       -1.1427089216       34.7651901198
  H         4.3684559704        3.9528471554       18.7232253463
  H         4.6224478027        3.3608841232       17.1323959115
  C         2.9225308336        2.5427745668       18.1048545239
  H        14.3983580271        2.4169769579       21.0900993976
  H        14.6928343849        0.7653585238       21.1080226475
  C        14.0984710443        1.8744997572       22.9527825456
  S         9.9943488413       10.1312901131       17.4475530759
  N        10.2532867820        9.8111165607       15.9186350098
  C        10.5663237964        7.8289928114       14.4887849101
  H        10.7907987234        5.7109502151       13.7138505157
  C         4.2779047236        0.7664100753       35.7365414820
  N         4.4681161474       -0.5248466446       35.9044907349
  O         4.8415935476       -2.3508167444       34.5549438658
  H         2.3509565353        3.3049506609       17.6602175517
  H         2.4989360844        2.4797117703       19.1928039208
  C         2.7224874546        1.2995316484       17.2313923918
  H        13.1484777263        2.3313164347       23.2867820994
  H        14.2056333718        1.1090719789       23.6700677833
  C        15.2218853661        2.8949583502       23.2347485231
  C        10.7953533457        8.6019046581       13.2864612432
  S         4.0471916166        1.7493402415       37.1643954462
  C         4.4872055906       -1.2144325220       37.2014397255
  H         1.7501750730        1.0613076609       16.7371185061
  H         3.3757564545        1.3626320283       16.4283983286
  C         2.7707708117        0.0120553938       18.1567274024
  H        15.0446985150        3.3421958373       24.2606118879
  H        15.1993413079        3.6591295360       22.4452208353
  C        16.6445565261        2.3100750622       23.1955880550
  H        10.6040700045        9.6700459587       13.3183852889
  C        11.2639716083        8.2209577306       12.0539169345
  H         3.9259019514       -0.6406571623       38.0161065203
  H         4.1494798422       -2.2306223444       37.1951726106
  C         5.9667466982       -1.2813023838       37.6339157235
  H         2.4231367964        0.3092707333       19.0930457587
  H         3.7879981856       -0.4065520310       18.3019342018
  C         2.1628282974       -1.2356604108       17.5859367254
  H        17.3034595455        2.9369528943       23.7638384847
  H        16.7253677574        1.3308568148       23.6537935514
  C        17.3202997275        2.3165550554       21.8167828683
  S        11.6993061191        6.6477104091       11.4767126432
  C        11.2569859460        9.2529769516       10.9517913323
  H         6.2439953446       -2.3195932722       37.4879145232
  H         6.6236589395       -0.6575869540       37.0381746951
  H         6.1494031392       -0.9242529466       38.6577994390
  H         1.0692122572       -1.1568802256       17.7876201763
  H         2.4929798917       -2.2132772059       18.0700585299
  H         2.4096697790       -1.3057397726       16.5111508927
  H        17.2100328571        3.2467129328       21.2033780415
  H        16.8084438051        1.5157953603       21.2333080865
  H        18.3744123428        2.0268963063       22.0192072864
  C        12.0762551076        7.5009365971        9.9589312412
  N        11.7938171701        8.8503978341        9.8607217576
  O        10.7873028889       10.3946518997       11.1916262078
  S        12.7776233047        6.7113254511        8.5920121542
  C        11.9479148988        9.8163934078        8.7269912673
  H        12.2616041531       10.7850548759        9.0371703779
  H        12.6962851373        9.3736662607        7.9889914964
  C        10.6197813356        9.9108967747        8.0089004756
  H         9.8882452675       10.1964098061        8.7851007207
  H        10.5160968951       10.6467872650        7.1175979972
  H        10.1518300129        9.0141155403        7.5008234602
  H         4.5407750516        0.9988490916       12.2375799254
  C         3.9186755954        1.9511197223       12.3842421613
  H         4.5663749431        2.7553179816       12.5757525227
  C         2.8763117535        2.0929217708       11.2125454627
  C         3.0845837835        1.8816592451       13.6228756388
  C         3.5384325268        2.3987862891        9.8997315699
  H         2.4187725061        2.9576040261       11.3742836653
  H         2.2502107521        1.3014493738       11.2823331658
  H         3.0206592531        0.8992480992       13.9247126395
  H         2.0612495652        2.1270941081       13.4459379581
  H         3.5263277283        2.3641297600       14.4878705222
  C         4.4181355120        1.1468356189        9.3377114340
  H         2.8700421877        2.6540737547        9.0875463069
  H         4.3562226227        3.0115798201       10.1563705252
  C         5.1750764464        1.4961786149        7.9751476340
  H         3.6896800599        0.4129320161        9.2151183771
  H         5.0930808021        0.7849697892       10.1089160001
  C         6.2974945144        2.4724000163        8.0117587695
  H         4.5512307773        1.7148943276        7.0210120823
  H         5.6463074430        0.5857461941        7.6644260314
  C         7.6326459099        1.8533081560        8.5326871126
  H         6.4559521960        2.8928504651        6.9547210919
  H         6.0402162912        3.2762193672        8.5444942580
  C         8.7951390612        2.8880310411        8.7974001512
  H         7.9614418106        0.9937867570        7.9656355136
  H         7.4249099612        1.2577907806        9.4301740442
  C         8.3378672317        4.2081586007        9.3926091328
  C         9.1820238952        3.5185227659        7.4981182124
  C         9.9993237344        2.1982023420        9.5412020428
  C         8.5760582756        5.2837605813        8.5855739041
  C         7.7344691117        4.5316153171       10.6651531993
  C         9.1604829364        4.8442752199        7.3498018205
  C         9.8057421353        2.9237254567        6.4203189250
  H         9.5776064695        1.5915575831       10.3548098450
  H        10.4578338848        1.3520950032        8.9397181181
  C        11.0714140963        3.1024140113       10.0580932783
  S         8.2163656377        6.7824359184        9.3084044192
  C         7.7313090502        5.8843787916       10.7612521723
  H         7.5990546595        3.8084707176       11.3687538782
  C         9.7296240665        5.5116496048        6.3229288389
  H         9.9217272558        1.8389212939        6.4676952377
  C        10.1753566970        3.5574044820        5.2482961157
  H        10.6485969077        4.1123984960       10.4949594477
  H        11.7249763612        3.4180153989        9.2484224393
  C        12.1020175619        2.4650919635       11.0212160023
  C         7.2689435019        6.6060444387       11.9797165576
  C        10.2824345231        4.8928738190        5.1706172617
  H         9.9399340971        6.5892825401        6.1816308922
  C        10.6961660547        3.0747236265        4.0808465993
  H        12.8164550563        3.3758254941       11.1279450139
  H        12.6410159571        1.6717226167       10.5873391816
  C        11.4692866023        2.2532778713       12.4090882662
  C         7.4721429859        7.9886139648       12.2724094994
  C         6.8837926400        5.6851973961       13.1832096891
  C        10.8827826796        5.5983162080        3.9468898090
  C        11.1156455665        4.1496911463        3.3308134359
  S        11.0614575405        1.4957995503        3.3488725230
  H        10.7824614865        3.1350309550       12.4864173619
  H        10.8328789373        1.4168413527       12.5099515896
  C        12.4958641468        2.1216297416       13.4927720949
  N         7.7064796477        8.9638183644       11.3276220695
  C         7.3739871012        8.4480405749       13.5272660922
  C         6.6598311383        6.2829533489       14.4545418400
  H         6.6806789603        4.6059177698       13.0519471198
  C        12.2522220544        6.3598207441        4.1399735384
  C         9.6955949483        6.3812378640        3.2885152782
  C        11.4799857802        3.6695616187        2.0833930707
  C        11.4605188123        2.3282147210        1.9689197525
  H        13.2417337553        2.9471243961       13.5957003482
  H        12.9314216891        1.1013073335       13.4452728394
  C        11.8659884062        1.7255773935       14.8302333250
  S         7.7494152282       10.3747117930       12.1370579867
  N         7.5832358229        9.8899643304       13.6036918638
  C         6.9611131878        7.7433805808       14.6615061580
  H         6.3929684274        5.5103798588       15.1920413847
  H        12.1069455348        7.0838789358        4.9463777208
  H        12.4744500440        6.8582047693        3.1134298046
  C        13.4000117927        5.6180631658        4.6658871908
  H         9.3288384463        7.0541558101        4.0539196734
  H        10.2006939227        7.1044924225        2.7654071482
  C         8.7229879583        5.4623142506        2.5390769423
  H        11.7900916401        4.2851639573        1.2955857800
  C        11.7517794553        1.5774525275        0.6814957193
  H        11.0943295331        2.3263115737       15.2131559118
  H        11.2772401849        0.7148860244       14.7783989999
  C        13.0199259159        1.6578387816       15.8212502472
  C         6.8925577109        8.3995110041       15.9672112417
  H        13.2006103642        5.0083860609        5.5374710389
  H        13.8218634854        4.9177058536        3.9812559591
  C        14.6345444549        6.4932424189        4.8916696745
  H         8.3191660231        4.7059206366        3.2287171859
  H         9.1045233062        4.9523007697        1.6310371054
  C         7.7608770543        6.4045896837        1.9617628242
  C        11.7851375184        0.2388632939        0.5636734238
  C        12.0359401606        2.4177747764       -0.5739274740
  H        13.8770807004        2.1901247809       15.4534575022
  H        13.3419481266        0.6120047880       15.9070038031
  C        12.6720679262        2.1573127858       17.2261612446
  H         7.0449387471        9.4858832183       16.0006490790
  C         6.5167732729        7.9275587042       17.1742530383
  H        14.4289770149        6.9391937999        5.8566356330
  H        14.9281096436        7.1719964348        4.0528108470
  C        16.0483632827        5.8763998024        5.1344937756
  H         7.4389830739        7.0130147091        2.8877204800
  H         8.1711352238        7.1162019748        1.2831859534
  C         6.4969408811        5.7639878477        1.4217532476
  N        11.3692963148       -0.7696614104        1.5072514637
  C        11.9678798188       -0.3993266947       -0.6529281460
  C        12.3137558471        1.8024085297       -1.7559627101
  H        11.8773244912        3.5202284737       -0.6538725840
  H        11.8005106435        1.6433430635       17.5544277517
  H        12.5165655352        3.1742672887       17.3250835442
  H        13.5283115666        1.9916357678       17.8960646258
  S         6.1673082115        6.2812550642       17.6963192972
  C         6.4435779785        8.8932812713       18.3118400254
  H        16.3829241385        5.3483912089        4.2033902983
  H        16.7355631742        6.6460035209        5.2981822622
  C        16.0793820526        4.8957020800        6.3017935244
  H         5.7829899625        5.6532474287        2.2454054379
  H         6.6755496761        4.7644340642        1.0834351679
  C         5.7654269701        6.7092732972        0.5241993434
  S        11.5145240938       -2.2526723917        0.8377178198
  N        11.9356920446       -1.7551100488       -0.6639249247
  C        12.3557373837        0.3076744319       -1.8116671158
  H        12.3356862295        2.2422498405       -2.7384208734
  C         5.8904187264        6.9535985110       19.2965017466
  N         6.1847505326        8.2618551366       19.4435473610
  O         6.7303931385       10.0890224843       18.2463426169
  H        15.6815653691        5.4469330705        7.1549506313
  H        15.3776739913        4.1023602120        6.1610859344
  C        17.4610425992        4.3685212965        6.8714692131
  H         6.3858758755        6.9303722667       -0.3312640062
  H         4.8017077204        6.1967144693        0.1137991128
  C         5.3842389443        7.9459878959        1.1702667362
  C        12.6472161535       -0.4564072141       -2.9743498565
  S         5.5909522139        5.9704366644       20.7315685230
  C         6.3538970551        8.9651757667       20.7397406618
  H        17.3156504282        3.8017969646        7.8093673930
  H        17.8315227853        3.6688815835        6.1207546581
  C        18.5037528429        5.3828419093        7.0418556257
  H         6.2666474144        8.7180896745        0.8458163058
  H         5.2985560251        7.9023676955        2.1944162645
  C         4.0604593068        8.5209986275        0.5532536989
  H        12.6007647805       -1.5154110731       -2.9524772700
  C        13.0361773869       -0.0369373179       -4.2871548541
  H         5.6885685795        8.5397227178       21.5020093639
  H         5.9624696732        9.8875423755       20.6352126938
  C         7.8487731410        8.8988937442       21.2277059580
  H        18.8939088067        5.0182369456        8.0160544919
  H        18.0955693225        6.3133306578        7.3745138363
  C        19.5913738740        5.6069345272        6.0016262628
  H         4.1301233010        8.2526721144       -0.5229268817
  H         3.3115891169        7.9709741732        1.1280734449
  C         4.1014738759       10.0389195961        0.8939998053
  S        13.6322870518        1.5316838005       -4.7453862403
  C        13.1337791971       -1.0943736558       -5.4032076462
  H         8.2062907481        7.8728464469       21.4648838806
  H         7.8226254229        9.5425230616       22.0280226476
  H         8.6373618217        9.2281861059       20.4146241863
  H        19.2044556110        6.0711832629        5.1069028934
  H        20.4303965380        6.1331198216        6.4347595950
  H        19.9106133253        4.6569205022        5.7219882684
  H         4.3093736150       10.0414788857        1.9535587695
  H         4.9805591474       10.4157209504        0.4295018383
  H         3.2923039409       10.6434780305        0.4838953807
  C        14.0657372993        0.7583529747       -6.2998042328
  N        13.6918659244       -0.4760346476       -6.5110114592
  O        12.8665243534       -2.2587113839       -5.2437126865
  S        14.9357137953        1.6816778148       -7.5273647241
  C        14.2252602772       -1.3015118728       -7.6410112701
  H        15.1420479535       -1.7386053985       -7.2869788442
  H        14.3789959166       -0.5119791257       -8.4512381299
  C        13.1258101107       -2.2653876864       -8.1160245879
  H        13.1828358854       -3.1667389144       -7.6515744810
  H        13.4078918757       -2.2272459185       -9.1239116118
  H        12.3077445498       -1.6601991452       -8.2821952339
