352
 i =     8700, time =     4350.000, E =       151.2854243529
  H        11.3323127871        4.7135015035       32.0233933197
  C        10.7487651010        5.6143168993       31.9722740115
  H         9.7268301673        5.2305740344       32.0487966874
  C        11.0236272758        6.2470670323       30.5922407228
  C        10.9463815434        6.4594251617       33.2802349065
  C        10.9834126460        5.2803515787       29.5116743374
  H        10.3629458208        7.0456487068       30.4222145496
  H        11.9653286306        6.7312076598       30.5068408118
  H        11.5213749084        7.3578759274       33.1053139474
  H        10.0330130766        6.8235913022       33.6287946358
  H        11.5486928419        6.0303754565       34.1081478704
  C        11.2052515383        5.9888524112       28.1347004353
  H        10.1082565558        4.7067825687       29.6623112546
  H        11.8770438933        4.6214650236       29.5337328238
  C        11.2028323167        5.0261838868       26.9321762620
  H        10.3770660438        6.6108113738       27.8633733628
  H        12.1375914984        6.5339359776       28.0939870820
  C         9.8157678439        4.5447191390       26.3817961093
  H        11.6873289283        4.1154960677       27.3715433388
  H        11.9285159171        5.2087021237       26.1959346738
  C         8.8370155998        5.6782670271       26.0278841204
  H        10.0400610407        4.1089424757       25.4100950747
  H         9.3387425389        3.8766014677       27.0772088562
  C         7.4807251774        4.9855290686       25.4534082171
  H         8.5909632772        6.2095902457       26.9162332227
  H         9.2625357490        6.3519988399       25.2793496147
  C         7.0133919838        3.6978767628       26.0566948226
  C         7.8225049103        4.3746762133       24.2544162845
  C         6.2642015895        5.9979421731       25.3498182406
  C         7.2300147279        2.5946360028       25.2336472663
  C         6.4485475774        3.3276258440       27.2577516571
  C         7.8218481145        3.0523743340       24.0784009528
  C         8.2171838532        5.0806873991       23.0934617766
  H         6.8154042166        6.7775929981       24.8307043146
  H         5.9812334252        6.4423349194       26.3034983483
  C         5.0672447903        5.3425333824       24.6423437841
  S         6.8499183141        1.0786487376       25.9116663777
  C         6.3270176258        1.9467235254       27.3707035993
  H         6.2221704015        4.1080598281       27.9762269377
  C         8.2406790027        2.3807528260       22.9643860300
  H         8.2371641075        6.2134094514       23.1223637344
  C         8.5309834064        4.4328866619       21.9282987049
  H         5.3887072704        4.9580693298       23.7231748084
  H         4.7607272340        4.5307935846       25.3372163111
  C         3.9354843161        6.3339432103       24.4142474151
  C         6.0313829223        1.2274911425       28.6317474266
  C         8.5139963775        3.0783329621       21.7317442088
  H         8.0744553593        1.3811619926       23.1366467556
  C         8.8720708767        4.8846550493       20.6843968337
  H         3.3218251862        5.8558667800       23.7672354959
  H         4.3917446663        7.2203469839       23.9081195305
  C         3.2124309354        6.8631928161       25.6400480506
  C         6.0755261000       -0.1295613196       28.9930403002
  C         5.6581746681        2.1159486271       29.8310914182
  C         8.8668109122        2.3937271333       20.4635743078
  C         9.1972651127        3.7837231455       19.8549451354
  S         9.0340167154        6.3639087211       19.8484077588
  H         2.7398643617        7.7453735914       25.3714854426
  H         3.8933925887        6.8431675921       26.4529834231
  C         2.0995487736        5.7837446261       25.9265400578
  N         6.4313306921       -1.0735592350       28.0143323220
  C         5.8680116377       -0.6274400229       30.2572556495
  C         5.3233908380        1.5011389903       31.0702976964
  H         5.3723807777        3.1677696528       29.6397987025
  C         7.6326850687        1.6574587875       19.9412574482
  C        10.1620639774        1.5915044859       20.7011109481
  C         9.6471654237        4.1840278703       18.5692920890
  C         9.6743209203        5.5551200911       18.3978482147
  H         1.4203584532        5.6484072501       25.1204959773
  H         2.6224024463        4.7885177242       26.1114247157
  C         1.4543736851        6.2384619767       27.2727266003
  S         6.5001645147       -2.5089953577       28.7756237435
  N         6.1808170696       -1.9881821027       30.2680753800
  C         5.5370424835        0.1035139877       31.4175618177
  H         4.8877913082        2.1443742722       31.8175413066
  H         7.2459019367        1.0389115836       20.7413123663
  H         8.0123094723        0.9010995568       19.1939620361
  C         6.4244917490        2.5784332792       19.4959784675
  H        10.5595211134        1.3358729924       19.6822467691
  H         9.9478406019        0.7032523887       21.3029618976
  C        11.3376647288        2.3200837175       21.3311083242
  H         9.8830804852        3.4942688362       17.7713545729
  C         9.9910949603        6.2743332283       17.1659566054
  H         0.4579156693        6.5606929839       26.9416931636
  H         1.9505855204        7.1999145393       27.3799440471
  C         1.4346439367        5.3923307563       28.5290041754
  C         5.2785237251       -0.5040749034       32.6397083624
  H         6.8198513602        3.1847590883       18.6688262667
  H         6.0136170056        3.1687916548       20.2408877935
  C         5.3065294332        1.6798939683       18.8791852977
  H        11.1446271785        2.4810618066       22.4018540178
  H        11.4795769460        3.2611552702       20.7114869658
  C        12.6254805722        1.3854099030       21.3406951438
  C        10.0681784345        7.6525643072       17.0175447635
  C        10.2517492315        5.4523690034       15.9586311448
  H         0.6696390680        4.6240321093       28.3207544790
  H         2.3842884227        5.0500695112       28.8529940435
  C         1.1974314005        6.1509312322       29.7665888303
  H         5.4937449919       -1.5629143642       32.7277434665
  C         4.8436504495       -0.0932222382       33.9055926988
  H         5.0747654956        0.9317021090       19.6866364134
  H         5.7172962137        1.1012992761       18.0530137226
  C         4.0073408922        2.4054572945       18.6891691107
  H        12.3670656359        0.4588359425       21.8725868196
  H        12.6943482614        0.9743565341       20.3727092531
  C        13.9355140220        1.9961888827       21.6641343177
  N         9.8427650934        8.5743314309       17.9896085333
  C        10.3296445153        8.2512661667       15.7989565552
  C        10.5490777279        6.0853417194       14.7294699015
  H        10.0161994101        4.4274275329       15.8306764057
  H         0.9431916832        5.5389302448       30.6186138662
  H         1.9945638828        6.7360597886       30.2974455606
  H         0.3256181996        6.7629692402       29.5067116350
  S         4.5893133213        1.5344061856       34.4526843694
  C         4.6357535093       -1.1426041867       34.8769216051
  H         3.7761337275        2.9866909084       19.5414954297
  H         4.2079976788        3.2003485981       17.8346441822
  C         2.8757305321        1.3834112234       18.4571017542
  H        13.9929875452        3.0025916378       21.1485060898
  H        14.7450308261        1.3479334474       21.3875341633
  C        14.0440974306        2.2951367548       23.1783729723
  S         9.9830365797       10.0938382853       17.3920810607
  N        10.3354101372        9.6813688645       15.8551636897
  C        10.5363099395        7.5695915383       14.6553913988
  H        10.8031075789        5.4861346404       13.8771737039
  C         4.3221507377        0.8273077650       36.0117273407
  N         4.3478160279       -0.5058598806       36.0637365025
  O         4.7737442213       -2.3688286475       34.6880170847
  H         1.8650918436        1.8095695343       18.7214978937
  H         2.9411350400        0.7832217046       19.3744180385
  C         2.8337832544        0.7144237725       17.0189464272
  H        13.1860864262        2.7208054421       23.6205074109
  H        14.1171294795        1.3250942203       23.7239716459
  C        15.1619627759        3.2344680054       23.4977239873
  C        10.8127333946        8.3098816956       13.4638002201
  S         3.8670472931        1.7465767028       37.3579893518
  C         4.3900484466       -1.3186411559       37.3196128233
  H         1.8890495371        1.1681804232       16.5575325908
  H         3.7258776493        0.9217426998       16.4805363429
  C         2.6547084122       -0.8127496942       17.0927329177
  H        15.0273569171        3.5794884353       24.4938461525
  H        14.9942711154        4.0438830871       22.7487732155
  C        16.4882795230        2.5955453573       23.3184341095
  H        10.5654421683        9.3688455585       13.4675241051
  C        11.3580849141        8.0795505396       12.1966798368
  H         3.7824285587       -0.8440516789       38.0693423138
  H         4.0584000416       -2.3934559248       37.1495894720
  C         5.8811888689       -1.4588636232       37.7496349580
  H         3.6234942048       -1.3073240583       17.3249547539
  H         2.5597174918       -1.0619851584       16.0334464097
  C         1.5106676557       -1.3849091492       17.8944486670
  H        17.1493973815        2.9555444259       24.0804176108
  H        16.4327806343        1.5215413364       23.4940789939
  C        17.1300613939        2.8669840576       21.9534211125
  S        11.9228606437        6.5462470792       11.5883372098
  C        11.4486392388        9.2188429725       11.1852712764
  H         6.4858524123       -0.9221561797       36.9809949536
  H         6.2295473114       -1.0659002382       38.7347486814
  H         6.1345521204       -2.4620755573       37.8385988989
  H         1.0153809384       -2.1389069335       17.2899533587
  H         0.9114335033       -0.5944167333       18.2404848995
  H         1.9271069612       -1.7701187596       18.7973860837
  H        17.0380490392        3.9828322060       21.7414149917
  H        16.5382756070        2.4882727162       21.0681607921
  H        18.2203819251        2.6192980866       21.6888833741
  C        12.4649145035        7.4427759928       10.1588135889
  N        12.0261732023        8.7471989262       10.1368951538
  O        11.1656800824       10.3997343056       11.4724266612
  S        13.1054202002        6.7929785438        8.7127350509
  C        12.1799078629        9.5274676182        8.8678147389
  H        12.0915350894       10.5446584843        9.1301465161
  H        13.1541450862        9.5271609064        8.4237906310
  C        10.9222246974        9.2409086699        8.0251180222
  H        11.0777981209        9.3697456363        7.0031036401
  H        10.5049099307        8.2406244506        7.9531189771
  H        10.0370949268        9.6227367811        8.3631378695
  H         4.2040755625        1.3766894770       13.1297379965
  C         3.7699955969        2.3472480942       13.0798958655
  H         4.5793257261        3.0521454529       13.3956228259
  C         3.2008751715        2.5418476763       11.6487487328
  C         2.7113577499        2.4770047966       14.1631329879
  C         4.2549941740        2.6535472214       10.5131418859
  H         2.5396780522        3.3917202675       11.7631615753
  H         2.5585389491        1.6490339665       11.4281059780
  H         2.0706312693        1.6420293126       14.2644352108
  H         2.1487997323        3.3904539498       13.8941187783
  H         3.1670272629        2.8613742685       15.1217846993
  C         4.9091178273        1.3884152097        9.9918099554
  H         3.7559605630        3.2216357762        9.6966847246
  H         5.0601859769        3.3530922070       10.8045833051
  C         5.5164386610        1.5506493442        8.5906068772
  H         4.2414823875        0.4665340087       10.1011975126
  H         5.7234026985        1.1570459605       10.7146245953
  C         6.8334484167        2.3725928326        8.6214529818
  H         4.8227480542        2.1421522574        7.9959047864
  H         5.8841359159        0.6025464098        8.1772127664
  C         8.0797994601        1.7250344642        9.0344244114
  H         7.1402693898        2.8451871738        7.6146777896
  H         6.5950782565        3.2555959659        9.1317250914
  C         9.2690902720        2.7642028333        9.3554543565
  H         8.3987322406        0.9361004158        8.4616712220
  H         7.9714064218        1.2743800775       10.0569901071
  C         8.8069610773        4.1078941335       10.0322903854
  C         9.7332252013        3.5077096540        8.0906939826
  C        10.4794532142        1.9940546351        9.9311038394
  C         9.0929866746        5.2538202251        9.3014623207
  C         8.2619577011        4.4408353372       11.2385609445
  C         9.6852384592        4.8666088300        8.0949109875
  C        10.1037284116        2.9703801310        6.8331890459
  H        10.2174333288        1.3533241249       10.8115298802
  H        10.7394565609        1.2530688219        9.2293393486
  C        11.5739497063        2.9786766585       10.3208150350
  S         8.5157657035        6.6834931911        9.9207685141
  C         8.0642227975        5.7736346044       11.3546504540
  H         8.1071429310        3.6984500216       12.0274340442
  C        10.1341634754        5.5726570519        6.9896780856
  H         9.8849176763        1.9991822358        6.7339682648
  C        10.4927514704        3.6559846478        5.6928900362
  H        11.1949137619        4.0084048708       10.5891454285
  H        12.1195664254        3.0221168306        9.4618353744
  C        12.6123830906        2.4121920086       11.3565010721
  C         7.5696728713        6.4502058383       12.6354568927
  C        10.4842896079        4.9872114139        5.6932688673
  H        10.1535931562        6.6538722432        7.0369696001
  C        10.8675916088        3.3121372173        4.4187494097
  H        13.5665198781        3.0008250248       11.5211211260
  H        12.8146978109        1.3799166932       11.0411282988
  C        11.9821591771        2.2787253141       12.7379172507
  C         7.5940671446        7.8320131778       12.9538151973
  C         7.0730940957        5.5687125649       13.6776092569
  C        10.9517103189        5.7514160018        4.4604695657
  C        11.1512664590        4.3873439257        3.6638933201
  S        11.0757497543        1.7634080980        3.6523861679
  H        11.3257842547        3.1466669427       12.8814509661
  H        11.3679173346        1.3923263806       12.8020800458
  C        13.1131704149        2.2730254723       13.8141775206
  N         7.8006258212        8.8061855778       12.0160343950
  C         7.2929052277        8.3050659937       14.1945839925
  C         6.7509691321        6.0933087993       14.9216417145
  H         6.6344566404        4.6044862752       13.4573019018
  C        12.2500288311        6.5260269726        4.7264516900
  C         9.7711254415        6.5356805613        3.8231674659
  C        11.5046075927        4.0384771490        2.3681105006
  C        11.6512900151        2.6431312510        2.2160587313
  H        13.7373615781        3.1840130128       13.6783593002
  H        13.8078458255        1.4223051667       13.7150903212
  C        12.5523018113        2.2519456482       15.1804730354
  S         7.7100238837       10.2492780816       12.7377660600
  N         7.4224796659        9.7439649335       14.2855519626
  C         7.0632110388        7.5284715363       15.3072144107
  H         6.3958100652        5.4052317790       15.7104105761
  H        12.2126708796        7.2045789352        5.6267828826
  H        12.1860951138        7.2331132236        3.8634338102
  C        13.5192069416        5.6451988270        4.8344947418
  H         9.4940791329        7.5007369931        4.3842017257
  H        10.1491964619        6.8254237766        2.9309122722
  C         8.4382147916        5.8042606500        3.4661185957
  H        11.6941356759        4.7679018634        1.6855880990
  C        11.9340158907        1.9290675792        0.9326365182
  H        11.7932307352        3.0837497982       15.2207612134
  H        12.0310426454        1.3146106561       15.1749116468
  C        13.6458481057        2.2562510365       16.2948387517
  C         6.8898312261        8.1592583373       16.5603662689
  H        13.2515399571        4.8218785614        5.4467823178
  H        13.6706726492        5.1642938802        3.8813823380
  C        14.7960316736        6.3860322635        5.2453572208
  H         7.9083573651        5.6008349527        4.4314039455
  H         8.6220696509        4.9647667804        2.8473030327
  C         7.4915418068        6.7927861786        2.7605870304
  C        11.8383781590        0.5744972530        0.6988647790
  C        12.1319428005        2.7033827274       -0.2873573484
  H        14.3761913632        2.9960873088       16.0467971919
  H        14.0709035254        1.2316273684       16.3247233321
  C        12.9828239122        2.6954683763       17.6115083006
  H         7.0378959844        9.2292754292       16.5578090133
  C         6.5083597047        7.7029121957       17.8088079772
  H        14.7298307157        6.9781461373        6.1736166845
  H        15.1055291357        6.9959071249        4.4305642978
  C        15.9465256318        5.3687806419        5.4203713902
  H         7.1911014182        7.5610782788        3.3843371542
  H         8.0777573838        7.2184961237        1.8977665623
  C         6.2256714205        6.0889966140        2.2389887753
  N        11.5831071896       -0.3499074389        1.7731051877
  C        12.1421158298       -0.1066360556       -0.4474504331
  C        12.3334916988        1.9930835324       -1.4628968791
  H        12.2296755501        3.7814668045       -0.2942350796
  H        13.6253458853        2.4962094949       18.3802539640
  H        12.1745306443        2.0221860715       17.6457615033
  H        12.6970861836        3.8105732184       17.5111057791
  S         6.0174621839        6.1136614626       18.2133712671
  C         6.4182535408        8.7155931844       18.8490779883
  H        15.4964511734        4.3921005013        5.1765766277
  H        16.7943338291        5.5574566292        4.7156805377
  C        16.5264911089        5.2683869367        6.8292429698
  H         5.4558183349        5.7249512790        2.9637449917
  H         6.5457986963        5.2257857916        1.7183872121
  C         5.5601040929        7.0245021793        1.2608683386
  S        11.6559408399       -1.8798806308        1.2248839398
  N        12.0754615682       -1.5319215176       -0.2772027149
  C        12.3897933819        0.5538620144       -1.6465226207
  H        12.6368385350        2.6056721958       -2.2629974035
  C         5.7492187462        6.7628755454       19.8314822683
  N         5.8803745509        8.1410525096       19.9004633794
  O         6.6449841944        9.9091177141       18.6616805691
  H        16.5113091926        6.3638019684        7.1397657529
  H        15.9556872121        4.6385403537        7.4827684645
  C        17.9856906296        5.0360951317        6.8294231889
  H         6.2427101807        7.4732387169        0.5176939920
  H         4.8673193225        6.3728095928        0.7423838004
  C         4.9222362159        8.2329525605        1.9094609060
  C        12.7008875991       -0.1357292751       -2.8028697850
  S         5.1786460326        5.8438549459       21.2139083479
  C         5.6739121440        8.8555628546       21.1503128804
  H        18.2174526531        4.3920814239        7.7134593195
  H        18.1271829928        4.4394031686        5.9274573228
  C        18.8137025130        6.2529058042        6.6372789883
  H         5.6385554986        8.9267329314        2.2246894390
  H         4.3532978517        8.0188900405        2.7776418102
  C         4.0789352621        9.0474857225        0.8566374352
  H        12.5887284277       -1.2151117071       -2.6276898259
  C        13.1582637555        0.1951808226       -4.0681073807
  H         4.9394384561        8.3923972800       21.8015792604
  H         5.3137393403        9.8402720363       20.8509751840
  C         7.0158710549        9.0905334073       21.8212925722
  H        18.6527517039        7.0778543205        7.2817880110
  H        18.6875029473        6.5974243243        5.5875458437
  C        20.2922860188        5.9268245734        6.6878419503
  H         4.1204896881        8.5249579803       -0.1031325907
  H         3.0090189930        9.0195273594        1.2167261147
  C         4.5651054276       10.4886941680        0.5048217671
  S        13.8519211346        1.7097492414       -4.4994883566
  C        13.3320126374       -0.8748279158       -5.1527371989
  H         7.0809051647        9.9091599950       22.4546570538
  H         7.9735595459        8.9224530135       21.2034500478
  H         6.9258686520        8.2271229438       22.5224560632
  H        20.8878551242        6.7987925694        6.5399728845
  H        20.5336530578        5.5225894522        7.6342718868
  H        20.5920195376        5.2686597424        5.9372348348
  H         3.6865657587       11.1282528246        0.5683082172
  H         5.2168308598       10.7219268929        1.2582943001
  H         5.0644650709       10.4318683209       -0.4623941615
  C        14.3257729483        0.9204814901       -6.0422881826
  N        14.1097445242       -0.4345658534       -6.1184949477
  O        12.8533276777       -1.9995713437       -5.0972238919
  S        15.0663969686        1.6674557424       -7.4181187815
  C        14.4649298892       -1.2319076404       -7.2863047535
  H        14.7359074015       -2.3303805596       -7.1148285805
  H        15.4014191156       -0.9925789569       -7.7926434461
  C        13.3047199996       -1.1507032675       -8.4094968431
  H        12.3052491262       -1.1478386252       -7.9944919747
  H        13.2854283675       -2.0819582085       -9.0281535579
  H        13.4107410270       -0.1984192157       -9.0727200632
