352
 i =    85000, time =    42500.000, E =        98.6850261987
  H        12.6026015228        6.8683535140       32.7544236422
  C        12.2267888952        5.8886301844       32.8020606275
  H        13.0329517848        5.2800095375       32.4587108022
  C        11.1336938303        5.7455175055       31.7642177350
  C        11.8080239500        5.4318515263       34.1668725450
  C        11.6889062206        5.8390955564       30.3081456497
  H        10.4112963766        4.9186265896       32.1098475193
  H        10.5312509574        6.6329751727       31.9688236202
  H        11.2168645775        6.1898312055       34.7195533689
  H        11.2703948381        4.5385568721       34.1351252777
  H        12.6421129108        5.1699449818       34.7662954577
  C        10.6473817351        5.5512827913       29.2447629784
  H        12.5571689524        5.1587365583       30.1331979151
  H        11.9963180278        6.8829771090       30.1456905858
  C        11.2046099010        5.4780383741       27.8730253886
  H        10.1615441254        4.6972797196       29.5579713779
  H         9.9171010053        6.3721629966       29.2495163191
  C        10.1290588269        4.9300430969       26.9439974139
  H        12.1596945693        4.9190788690       27.8375077033
  H        11.4763367383        6.4954538661       27.7886457568
  C         8.9974256710        5.8937214850       26.5032169469
  H        10.5243050788        4.5082464362       26.0403308113
  H         9.7193626351        4.0621168768       27.4003079971
  C         7.7965945140        5.2075089006       25.9504274150
  H         8.6064389289        6.4837195814       27.3295977150
  H         9.4881715425        6.4952096926       25.6747558540
  C         7.3866724182        3.9147965388       26.7169875943
  C         8.1453845754        4.4882069560       24.7016571834
  C         6.5313966277        6.0949947831       25.7552466108
  C         7.5637711436        2.8478787368       25.9085081823
  C         7.0546898268        3.5124000264       28.0402259311
  C         8.1028444246        3.1847401008       24.7120096370
  C         8.5919406625        5.0441512779       23.5252044337
  H         6.7858096201        6.8256038721       24.9488455353
  H         6.2490767950        6.6180888130       26.7153141706
  C         5.2356587035        5.3948504048       25.3421945141
  S         7.0135884551        1.3080689665       26.4966712954
  C         6.6862665827        2.1796718971       27.9997844256
  H         7.0030985720        4.2841499228       28.8442419478
  C         8.4705789577        2.4951330836       23.6007002967
  H         8.7001196599        6.1658524113       23.4242577176
  C         8.8931816090        4.3825917880       22.4023520528
  H         5.3300050610        5.0253044474       24.2498628216
  H         5.0087203624        4.5840293503       26.0265252211
  C         3.9599150490        6.2893878651       25.3406395167
  C         6.1164667874        1.5461871262       29.2704629202
  C         8.9125708993        3.0349287997       22.3997938136
  H         8.3693004667        1.4472630842       23.6573992745
  C         9.2398566395        4.6977747839       21.1053934682
  H         3.1131467735        5.8567034157       24.8143645119
  H         4.0394788771        7.2222878895       24.7849174400
  C         3.3956366969        6.5056015550       26.7519035097
  C         5.9886152765        0.1191640050       29.4619005716
  C         5.5962868066        2.4206094544       30.3476572580
  C         9.1874374201        2.2782026491       21.1215960341
  C         9.4148392046        3.5563577719       20.3550385154
  S         9.6625254725        6.1405705448       20.3115199808
  H         2.6683281509        7.2679538478       26.6429249472
  H         4.2617761043        6.8612664853       27.3674405506
  C         2.8608833151        5.2514782093       27.5592813403
  N         6.3772737959       -0.7754640476       28.4707816610
  C         5.7553465358       -0.4558842726       30.6965257587
  C         5.2991713791        1.9142739151       31.6228758370
  H         5.6271164640        3.4746755859       30.2912781226
  C         7.9404976164        1.4988057103       20.6156660630
  C        10.4089588811        1.3427581968       21.1104976532
  C         9.8158711166        3.8710109240       19.0334868206
  C         9.8213265762        5.2364290652       18.8241046621
  H         2.4610108646        4.6890285463       26.8280818284
  H         3.6994311968        4.6714608117       27.9253495431
  C         1.8466416085        5.5438450160       28.7031402767
  S         6.1786802234       -2.2914228813       28.9781347377
  N         5.9354967613       -1.8526909262       30.5851477346
  C         5.4354035334        0.3669336134       31.8362652967
  H         4.9742570068        2.4835806362       32.5206668331
  H         7.8771110084        0.5444976907       21.1339368723
  H         8.3281729818        1.1733177410       19.6480526024
  C         6.6047276589        2.2709229163       20.5284240253
  H        10.5649665114        0.7069290950       20.1855804429
  H        10.3817572732        0.6838995700       22.0270435215
  C        11.7642407182        2.0438926706       21.2265537259
  H         9.8656280707        3.1365271291       18.2568568109
  C        10.0101170368        5.9323413647       17.4756085160
  H         1.1047271631        4.7343246007       28.8644722627
  H         1.2040232784        6.4646707840       28.4794700277
  C         2.6584208995        5.7187044811       30.0112029920
  C         5.3943605925       -0.3179042144       33.1059304086
  H         6.6142005785        3.2253436160       20.9701265421
  H         5.8321559458        1.6456260547       20.9349444362
  C         6.1522517671        2.3589571766       19.0657889608
  H        11.8053350288        2.8357817769       21.9593430595
  H        11.8474580864        2.6956524508       20.3188470135
  C        13.0585375680        1.1802847036       21.2886518982
  C        10.0145337496        7.3661019280       17.1980182430
  C        10.3242581278        5.1042819806       16.2427012214
  H         3.6313613303        5.2743564585       29.9765440676
  H         2.8804231377        6.7200359277       30.1077686561
  C         1.7925366012        5.3042495597       31.2178594344
  H         5.3753423929       -1.3578428617       33.0419504809
  C         4.8740374301        0.0216928789       34.2835703035
  H         6.4751844269        1.4243255461       18.5467682732
  H         6.4830282720        3.2852856702       18.5024171737
  C         4.5591439246        2.3672663971       18.9282041965
  H        13.1351654240        0.7285421746       22.2322163574
  H        12.9849423117        0.3980070906       20.5597432017
  C        14.2937561956        1.9648736542       20.9526235015
  N         9.8210441923        8.3206570325       18.1883748787
  C        10.3654012963        7.9293634057       15.9686389154
  C        10.5382937170        5.7070441848       15.0122152985
  H        10.2056187238        4.1011098531       16.3107195751
  H         1.2464205034        4.3539764300       31.1027489869
  H         2.3611209630        5.3404282751       32.1426663778
  H         1.1170724986        6.0737369741       31.4547649121
  S         4.3788926134        1.5293640843       34.7917057537
  C         4.8444544258       -1.0258486597       35.3302968756
  H         4.1056526441        2.7197359884       19.8821032177
  H         4.1633454678        3.1265396297       18.2848223702
  C         3.9952010856        0.9581321003       18.6956773572
  H        14.1720444843        2.8094884505       20.2422983078
  H        14.9034018190        1.2436399262       20.3263678610
  C        15.0631399024        2.2888228885       22.2564814378
  S         9.9105676090        9.7551177211       17.5100544806
  N        10.4405261135        9.3151237591       16.0318454611
  C        10.5702044306        7.1847400332       14.8038268248
  H        10.7407997611        5.1217760329       14.0933184698
  C         4.0949382873        0.8290299239       36.3703228287
  N         4.3940151327       -0.4594232507       36.4921721113
  O         5.2261019683       -2.1998917188       35.1249440444
  H         4.1054930648        0.3332203512       19.6251285236
  H         4.6113109555        0.3354310583       18.0384733429
  C         2.6014520194        0.9416091868       18.1084441048
  H        14.5191673267        3.0161567785       22.7835707623
  H        15.1078498557        1.3783861808       22.8926518709
  C        16.5120433500        2.7825797514       22.0980049509
  C        10.8469945702        7.9843281734       13.6316202648
  S         3.7242533924        1.7372263545       37.8782433108
  C         4.3935602762       -1.2428395407       37.7681666769
  H         2.0985713909        1.9123948964       18.2922714378
  H         2.6977216802        1.0075653976       17.0515877567
  C         1.8681410875       -0.3141978788       18.6211826816
  H        16.5950884859        3.8063558007       22.4296275132
  H        16.9059638797        2.7590246325       21.1017184454
  C        17.4792451181        2.0314276083       23.0630902309
  H        10.6076396817        9.0220986280       13.6388132671
  C        11.3022166069        7.5990261803       12.4040567253
  H         3.6785667724       -0.9225964882       38.5204647495
  H         4.2644403279       -2.2618762411       37.5544140968
  C         5.7627900599       -1.0818090663       38.4099254486
  H         0.8485787869       -0.0614245595       18.7301286278
  H         2.3739339116       -0.6850995735       19.5498693363
  C         1.9536590860       -1.4475019720       17.5713854921
  H        17.2912035109        0.9608975785       23.0141297445
  H        18.5009293772        2.2520459449       22.6628992143
  C        17.1871842744        2.2449403067       24.5665501061
  S        11.6845673427        5.9887346791       11.8576983830
  C        11.3948101767        8.7076694469       11.4355445176
  H         6.6056640269       -1.4396560434       37.8482119913
  H         5.8247343765        0.0086147501       38.5407998121
  H         5.7144184323       -1.5781972573       39.4173579284
  H         2.9083321811       -1.5720001317       17.1751004436
  H         1.3503367222       -1.1907309783       16.7042300430
  H         1.6073488350       -2.3946490453       17.8514706217
  H        16.7147202879        3.2163187774       24.7315620567
  H        18.1055238210        1.9396832970       25.0726493518
  H        16.5050853825        1.4620085697       24.8889772391
  C        11.9985672579        6.7041694361       10.3507029739
  N        11.8051816743        8.0671751881       10.3161884430
  O        11.1347969588        9.8613526221       11.5568526137
  S        12.8577704275        5.8625602944        9.0956432870
  C        12.0494672120        8.8272729183        9.1260328877
  H        12.1621208664        9.9382201439        9.2535320078
  H        13.0382807776        8.4305592258        8.7459645506
  C        10.9103245150        8.5122809072        8.1553912101
  H        10.1748638546        9.2484127563        8.1762042290
  H        11.2833795350        8.3906879250        7.1004773081
  H        10.4284316342        7.5724612210        8.3860985100
  H         4.4604685451        1.3935156930       12.7561665779
  C         3.7057515655        2.1619105770       12.9711999240
  H         4.2588027070        3.0443903124       13.1678654551
  C         2.9783487198        2.4232694847       11.6544328716
  C         2.8544406096        1.6364242257       14.1421852775
  C         3.8137400585        2.5191367554       10.3791803782
  H         2.3428560836        3.3339310174       11.8844601831
  H         2.2235005498        1.6016414932       11.5184728038
  H         2.2002640526        0.8690755572       13.7822083388
  H         2.4315982833        2.5127275634       14.6176797241
  H         3.5234362189        1.1183608401       14.8300000756
  C         4.6652328404        1.3012654961       10.0269666856
  H         3.0887154736        2.7217740652        9.5908762236
  H         4.4936660298        3.3458455112       10.4946196343
  C         5.2050740624        1.1905423669        8.5889331571
  H         4.0891882197        0.3706261109       10.1319152200
  H         5.5178953612        1.3700373293       10.7157625729
  C         6.4089298525        1.9923029944        8.4234212614
  H         4.3840294287        1.6541747261        8.0297792129
  H         5.1712973155        0.1297759363        8.1877109405
  C         7.6443041450        1.4721909989        9.1040858244
  H         6.7127409960        2.0883396429        7.3769574799
  H         6.1448735855        2.9802260627        8.7277436659
  C         8.8240723919        2.4152730138        9.3074606317
  H         8.0244749487        0.6439423025        8.5336005094
  H         7.4339519180        0.9682935466       10.0349327891
  C         8.4396315656        3.7529368099        9.9625703876
  C         9.2322478326        3.1050412275        8.0198770544
  C         9.9791717859        1.6818560711       10.0405200086
  C         8.5788928458        4.8506000967        9.1169935084
  C         8.0317622637        4.1275815611       11.2585775412
  C         9.0722378123        4.4838968432        7.8630288965
  C         9.8218203754        2.5722183962        6.8199031567
  H         9.5109894911        0.9252989140       10.7343769159
  H        10.5077929862        1.1180982461        9.2955237670
  C        10.9096948051        2.6945884088       10.7931496286
  S         8.2437475872        6.3322249966        9.9868827778
  C         7.7687360420        5.4856918943       11.4107268764
  H         7.7807927967        3.4193734273       12.0201794655
  C         9.5261044212        5.1322051149        6.7514359969
  H        10.0239297566        1.5015350622        6.7660946190
  C        10.1232211750        3.1764421142        5.6687423241
  H        10.4810174262        3.2926746030       11.5675046833
  H        11.2829231731        3.4096485895       10.0077455978
  C        12.2033219041        2.0053639071       11.3804173305
  C         7.3819407044        6.1635489902       12.6882069699
  C        10.0629585416        4.4924993611        5.5748584172
  H         9.3830835604        6.1779921102        6.7986790429
  C        10.5455610412        2.7421083377        4.4135982880
  H        13.0144124811        2.7089807659       11.5215854125
  H        12.4850494224        1.2507939166       10.6312632686
  C        11.7582205748        1.3630588246       12.7469118537
  C         7.5495515837        7.5245357199       13.0138165861
  C         6.9585879451        5.3249573326       13.8354324955
  C        10.3736595675        5.1177344996        4.2550080107
  C        10.6637127286        3.8070369393        3.5831899507
  S        10.9088317952        1.1761221672        3.7650724183
  H        10.8190025455        0.8906213304       12.6007853285
  H        12.5287412304        0.6386535811       12.9289244089
  C        11.6963780829        2.2969941151       13.9556855507
  N         7.9121306177        8.4838340750       12.0487229761
  C         7.3790520056        8.1029148546       14.2755661082
  C         6.7630983786        5.9091481780       15.1507901183
  H         6.8305455110        4.2783935875       13.7376013829
  C        11.6027724657        6.0407932858        4.3235466091
  C         9.1585355289        5.8693545218        3.7292231573
  C        11.1199637431        3.3967038311        2.3433788526
  C        11.2879348883        2.0384128379        2.3027367171
  H        10.7626883201        2.8757427758       13.8257378654
  H        12.4514995568        3.0198694662       13.8165549626
  C        11.7485819787        1.6326241321       15.3134124741
  S         7.9021851085        9.9646499615       12.8109018225
  N         7.6289251394        9.4568494806       14.3457493748
  C         6.9932351574        7.3951130926       15.4319099157
  H         6.2588377036        5.1898017828       15.8060935921
  H        11.4317828753        6.8622895742        5.0414097406
  H        11.7116020685        6.4551290555        3.3181239947
  C        12.8854512498        5.2589029221        4.6965510036
  H         8.7485622219        6.4532759187        4.4827952943
  H         9.5537041896        6.5383178312        2.9476853856
  C         8.0324404145        4.9751091804        3.1341491380
  H        11.2120333681        4.0828171259        1.5651626150
  C        11.5987826423        1.3184917158        1.0330668782
  H        10.7838165105        1.8852015767       15.7641475846
  H        11.7892737604        0.5210640632       15.2243857074
  C        12.9183524707        1.9468309314       16.3077676115
  C         6.8857227007        8.0874287576       16.6507901409
  H        12.6251634937        4.5067847767        5.4463180098
  H        13.2306396543        4.5765188401        3.8617997307
  C        14.0878564788        6.1295365566        5.1807393538
  H         7.8177879852        4.0574730261        3.6070124508
  H         8.3627549268        4.7146739404        2.1112891578
  C         6.7205443729        5.6229406194        3.0512512477
  C        11.7013872465       -0.0798704380        0.8150494870
  C        11.9090101329        2.2179213065       -0.1132779543
  H        12.9933083555        3.1029362766       16.2912505129
  H        13.9031799327        1.6545091003       15.8820170992
  C        12.7726275905        1.3983953503       17.7336050776
  H         6.9377714208        9.1844991283       16.5777936566
  C         6.6225667186        7.6458399766       17.9574878690
  H        13.8296342381        7.0556322021        5.7141710414
  H        14.6863444706        6.5107201746        4.4030646506
  C        15.0808998018        5.3930340715        6.0723754080
  H         5.9557634904        5.2512648449        3.7756636437
  H         6.8885940704        6.6907195590        3.2443514550
  C         6.2475688697        5.5775108873        1.5929521989
  N        11.3960065617       -1.0081052110        1.7877504238
  C        12.0499334375       -0.6698716113       -0.3722012610
  C        12.2147041308        1.6207071924       -1.3123659337
  H        11.7363153059        3.2712998112       -0.1324627742
  H        11.7151223799        1.4482418334       18.0313389801
  H        13.3470678446        2.0042489117       18.3081601161
  H        13.1322864156        0.4283481560       17.8347118793
  S         6.3752848580        6.0385708997       18.4618042376
  C         6.5880419340        8.6306494456       19.0346950018
  H        14.6832671733        5.4146995785        7.0265031620
  H        14.9343068421        4.3120640148        5.9036509880
  C        16.5448780336        5.7325724475        5.8767270070
  H         6.3661343255        4.5868021432        1.2342535207
  H         7.0119842451        6.1419057995        1.0259642881
  C         4.8254475760        5.9303723251        1.4137845724
  S        11.5783305299       -2.4792611721        1.1901642963
  N        11.9411095262       -2.0480700508       -0.3610969479
  C        12.3004062138        0.1408989423       -1.4694430976
  H        12.3828587251        2.2806401805       -2.1118302190
  C         6.1207538839        6.6329212086       20.0498600721
  N         6.2169344783        7.9882726906       20.1827654323
  O         6.5951748420        9.8649963591       18.8208244961
  H        16.7767269272        5.4721442937        4.8365130379
  H        16.7763456611        6.7688154869        5.9106328718
  C        17.3497982835        4.8455830934        6.8016112944
  H         4.5472376449        5.5802934851        0.3335811536
  H         4.2274580721        5.2820396012        2.0532626519
  C         4.4217482857        7.3702016466        1.5051991342
  C        12.6817724380       -0.5251314119       -2.6867983897
  S         5.8237641408        5.7024896473       21.4800098618
  C         6.2247138652        8.7496621909       21.4576116688
  H        16.7603977018        4.3502075604        7.6259476113
  H        17.4982560183        3.9484844952        6.1986872656
  C        18.6056127498        5.5065526429        7.3766515440
  H         4.6858339595        7.8325911120        2.4959979134
  H         3.3324093048        7.3816130612        1.6957010439
  C         4.5860653436        8.2502710467        0.2300567822
  H        12.4498476558       -1.5570781885       -2.7461999160
  C        13.3097551771       -0.1669563099       -3.9120044061
  H         5.6779209204        8.3187978164       22.2681102409
  H         5.5891399858        9.6191928289       21.3465785043
  C         7.6316158580        9.2297333271       21.8290893753
  H        18.9473384871        4.9735930922        8.2186498041
  H        18.3999714960        6.4918299119        7.7909150531
  C        19.7144872244        5.5536064006        6.4110721631
  H         5.5228661227        8.7849386073        0.3175790215
  H         4.5754750189        7.7169436295       -0.7386432070
  C         3.6582191414        9.4898574894        0.2980867789
  S        13.9243177417        1.4650686858       -4.3400889892
  C        13.3746399326       -1.2117199840       -4.8811310829
  H         7.7575641867        8.9801013861       22.8824736003
  H         7.7565813026       10.3461403474       21.9580364614
  H         8.5387252174        8.7096972335       21.3523283690
  H        19.5648610072        4.8157972946        5.5924310811
  H        19.7969147318        6.5082953573        5.9073274242
  H        20.6870399642        5.3830821868        6.8549766786
  H         4.0110265973       10.1903469178        1.1151529344
  H         3.6099195796        9.9963196180       -0.6474248060
  H         2.6006470934        9.2194094943        0.5389380158
  C        14.5229909977        0.5741053176       -5.8396287824
  N        14.0866003224       -0.7384454184       -5.9239819698
  O        12.9025501075       -2.3518835489       -4.8739369916
  S        15.1081239314        1.4479284143       -7.2114533404
  C        14.2002164526       -1.5194207988       -7.1196341952
  H        14.2895940925       -2.5521680376       -6.8676247651
  H        15.1346711683       -1.2773630661       -7.5558686412
  C        13.0476561189       -1.2623538470       -8.1666259512
  H        12.3513858844       -0.6801097354       -7.6460080914
  H        12.5437295193       -2.1913323825       -8.3770019932
  H        13.4175855310       -0.8043198772       -9.0511155834
