352
 i =   114700, time =    57350.000, E =        99.6958164871
  H        10.0855115311        4.4371605035       31.7974503056
  C        10.3507321026        5.3554740822       32.3685526232
  H         9.4358328350        5.9175712422       32.5807422882
  C        11.3119283833        6.0880557001       31.4135021720
  C        11.0447020173        4.9030517285       33.6729599492
  C        10.6968792249        6.3572037925       30.0349480676
  H        11.6658787005        7.0288198117       31.7903221039
  H        12.2232014694        5.4785918128       31.2238360387
  H        11.2888886047        5.6670892121       34.4599520876
  H        10.3659470122        4.1657763497       34.1312449304
  H        11.9845127605        4.4364598810       33.3628085590
  C        10.2867868577        5.0826032032       29.3014877202
  H        11.3759425412        6.9777184852       29.5056086691
  H         9.7771251142        6.9198171909       30.1904343145
  C        10.1793206863        5.4174800351       27.7918653222
  H        10.9995904009        4.3240310548       29.5060630688
  H         9.2779457134        4.7955260161       29.5954506180
  C         9.0372265635        4.8213754441       27.0955107809
  H        11.0995639827        4.9476329618       27.3132690859
  H        10.1046459514        6.5488661633       27.5980901865
  C         7.9924759869        5.9311533542       26.6733365375
  H         9.4569928672        4.3708256241       26.1538454480
  H         8.6787243206        3.9667224984       27.6692382737
  C         6.8264828114        5.2487203114       25.8367525060
  H         7.6462313156        6.4968473455       27.4900300723
  H         8.5643902208        6.6635627302       26.0924490623
  C         6.5603563627        3.9117536358       26.4996280116
  C         7.3225705583        4.5562261822       24.6307718703
  C         5.5745243333        6.2162537509       25.6471911661
  C         6.7519588081        2.8146992320       25.7146180160
  C         6.0302577328        3.4910461855       27.7532347570
  C         7.3219033505        3.1646965572       24.4810468564
  C         7.7400027328        5.1137575674       23.3719060064
  H         5.8452883761        7.0602118589       25.0362358682
  H         5.3407590261        6.5922043307       26.6366027208
  C         4.3327070378        5.6066284864       24.9923170434
  S         6.3534198351        1.3033289595       26.3745203338
  C         5.8679051752        2.1132408245       27.8604772387
  H         5.8202274591        4.3582361362       28.4653151028
  C         7.6634417755        2.6015750909       23.2975577575
  H         7.7462202799        6.2139860808       23.4295141517
  C         8.1505552412        4.5482178167       22.2289756452
  H         4.6790957328        5.4361317910       23.9842939711
  H         3.9530621246        4.6245489022       25.3530156603
  C         3.0826210717        6.5067533232       24.9542844278
  C         5.4919502182        1.2609631115       28.9713439259
  C         8.1701330540        3.2125200371       22.1452390671
  H         7.7529697275        1.4773108850       23.2180817845
  C         8.5772405942        4.9016328670       21.0118085140
  H         2.3623756432        6.3794865817       24.1973158740
  H         3.2780127018        7.5780603766       24.8357333943
  C         2.3241727794        6.5184771189       26.2769130894
  C         5.5294664563       -0.1709998002       29.1032331445
  C         4.9570524223        1.9632982618       30.1835487852
  C         8.5391345942        2.4780955287       20.8761738622
  C         8.9287416444        3.8159137396       20.2707121759
  S         8.8632724139        6.4248929928       20.2532889215
  H         1.4901201236        7.2517717142       26.2087449418
  H         2.9454144753        6.9512814420       27.1057145488
  C         1.7020532462        5.0961943265       26.5892628079
  N         5.9076010286       -1.0617341964       28.0918883652
  C         5.2530199938       -0.8365847997       30.2825660828
  C         4.6455624983        1.2809436642       31.3302192813
  H         4.9527020213        3.0758932639       30.2323103517
  C         7.4037320044        1.6888843205       20.2529266523
  C         9.8848147162        1.6618311143       20.9821116556
  C         9.3852484233        4.3000225241       19.0037535959
  C         9.2855678657        5.6103228421       18.7694464806
  H         1.1732433121        4.6913245694       25.7523257511
  H         2.3360530252        4.2890290303       26.7980477540
  C         0.7420365767        5.2974714165       27.7993847904
  S         5.9573759601       -2.5613590630       28.7253654817
  N         5.4630456445       -2.1845057485       30.2589087672
  C         4.8663388681       -0.1462170747       31.5351123486
  H         4.1892743478        1.8061822034       32.1671170560
  H         6.8618221158        1.2560198670       21.0894599423
  H         7.8646244113        0.8418007267       19.6556140318
  C         6.3904201959        2.5721590077       19.4155545372
  H        10.2786055806        1.4161734758       20.0089104562
  H         9.5515163828        0.6916844715       21.4289636239
  C        11.0342629238        2.3562552403       21.7290952636
  H         9.7982571830        3.5622329172       18.3241138621
  C         9.7043112953        6.3716015063       17.5001796972
  H         0.3447404534        4.3070832876       28.0617835896
  H        -0.1283670965        5.8456576995       27.5084119570
  C         1.3243707371        5.9643274866       29.0226841152
  C         4.7408394212       -0.9488932027       32.7486026294
  H         6.8621244773        2.9136099457       18.4915042164
  H         6.0220069048        3.4076290642       20.0668632569
  C         5.1980751104        1.7614029807       18.9248642200
  H        10.6668298821        2.5948814734       22.7151285086
  H        11.3917795052        3.3007182368       21.3553451333
  C        12.2793454167        1.5511691336       21.7366491915
  C         9.8272857232        7.7672098540       17.3443820086
  C         9.8261038048        5.5415610902       16.3089389377
  H         1.5641278439        7.0102433449       28.7963068087
  H         0.5463308152        5.9926620764       29.8095373445
  C         2.6389086647        5.2851740008       29.5901573230
  H         4.9991797318       -1.9918524173       32.5885186898
  C         4.3931375143       -0.5886274101       34.0303551050
  H         4.5740205610        1.8596447593       19.7813252298
  H         5.6132167594        0.7420705999       18.7371669310
  C         4.4182851394        2.4621960010       17.8275033258
  H        12.3115653256        0.7512650689       22.4393966621
  H        12.4185670298        1.2017097317       20.7615338196
  C        13.4747649673        2.4422652932       22.0040190173
  N         9.6168220459        8.6810803731       18.3359771663
  C        10.2128746606        8.3610592256       16.1526415377
  C        10.0756760500        6.1346572458       15.1007163092
  H         9.7417993162        4.4809376970       16.3343024418
  H         2.9115590205        5.7648083174       30.4830054277
  H         2.4016245739        4.2338435606       29.8217208549
  H         3.4318938296        5.1896414106       28.8578244605
  S         3.9183666560        0.9580468329       34.5213009413
  C         4.3558382959       -1.6352534470       35.0451294518
  H         4.1864851967        3.5001966494       18.1583902533
  H         4.9831350448        2.4836340353       16.9212411398
  C         3.0240361701        1.8140889452       17.6060536174
  H        13.3385773881        3.3133962632       22.6641480860
  H        13.8299096566        2.8937131721       21.1007607711
  C        14.7000468184        1.6299554523       22.5114691508
  S         9.8510597974       10.1406930556       17.7002761529
  N        10.2915644535        9.7375885416       16.1934022370
  C        10.3627711547        7.6002026071       14.9483434988
  H        10.0802570080        5.5043881199       14.2573913460
  C         3.7912592159        0.2863528758       36.1506425160
  N         4.0263348247       -1.0666155696       36.2304880520
  O         4.7776759499       -2.7579100412       34.8101333712
  H         2.5054252150        2.6589452690       17.0875462140
  H         2.6179424779        1.7441850541       18.5829863217
  C         3.0823141767        0.6125664644       16.6574688033
  H        14.3810404070        1.0703974563       23.3790218794
  H        15.0657162310        0.8617591675       21.8185617591
  C        15.8040050511        2.6574644759       22.8043295878
  C        10.6938813566        8.2254123879       13.7403958760
  S         3.3647840342        1.1557047573       37.6233167371
  C         3.9246272363       -1.8647119562       37.4567128667
  H         2.5464852929        0.9052778037       15.7282405883
  H         4.1162741527        0.3178041060       16.3744245566
  C         2.4376813219       -0.5998603593       17.3767349498
  H        15.4623286992        3.3604885308       23.5457128328
  H        15.9378685830        3.3059899003       21.8888406198
  C        17.1302753610        1.9441962848       23.0440053610
  H        10.5374942617        9.3159468447       13.7172185483
  C        11.1008881738        7.7973974724       12.5288053366
  H         3.1132771699       -1.5456518482       38.1186062498
  H         3.6426352544       -2.9019710896       37.1957897271
  C         5.2722833663       -1.8908823067       38.1472147689
  H         1.5716692596       -0.1392865096       17.8190839369
  H         3.0712909668       -0.9055868922       18.2558746906
  C         2.0851847231       -1.8593483448       16.5414444730
  H        17.1457597213        1.0682594317       22.4618724259
  H        17.9365373955        2.5518312340       22.6180978109
  C        17.3455311099        1.6480875150       24.5678518487
  S        11.5952299898        6.1623845292       12.1400773588
  C        11.4478776304        8.7878737325       11.5342900174
  H         5.4415341155       -1.1606101854       38.8737667102
  H         5.3599276036       -2.9080843528       38.6193466415
  H         6.1326227560       -1.8494482242       37.5094779768
  H         1.3727001519       -1.5280700909       15.7191815358
  H         1.5382856146       -2.5745303437       17.1574062431
  H         2.9722426835       -2.3158451436       16.0850887995
  H        16.6078778544        0.9083062181       24.8958458070
  H        17.1488397035        2.4546201955       25.3023533922
  H        18.3325012659        1.2241210172       24.6769305477
  C        12.0236897372        6.8440227290       10.5556041285
  N        12.0437588519        8.1897800226       10.4722845976
  O        11.1872161029        9.9917345405       11.6139270083
  S        12.6576422187        5.9003143993        9.2393723870
  C        12.3403392976        8.9912944472        9.3139129779
  H        12.8165085437        9.8878188804        9.7175194916
  H        13.0674673554        8.4220716942        8.6457846385
  C        11.0959603282        9.4200949149        8.6050117811
  H        11.2780342786        9.2538432437        7.5037943305
  H        10.2601439874        8.8393175777        9.0163944412
  H        10.7569211807       10.5189165030        8.7696729739
  H         3.0149188360        4.4607430134       11.4404775937
  C         2.9289889915        3.5224261317       12.0023009008
  H         2.1152797966        3.7591210557       12.7076080407
  C         2.5744351046        2.4692920104       10.9225375835
  C         4.2732483035        3.2852080629       12.7372876221
  C         3.4354541885        2.5632656536        9.6810031797
  H         1.4797985198        2.5551496403       10.8577867004
  H         2.7378560651        1.5652046307       11.3524557173
  H         5.0963677953        3.4747955716       12.0868713255
  H         4.2753533850        2.3686705513       13.2316632285
  H         4.3667553876        3.9255838793       13.5947032566
  C         4.6314759919        1.6176189670        9.5106699031
  H         2.7826051846        2.6770115482        8.8078088889
  H         3.9053065503        3.5242735182        9.6104079088
  C         5.3699999282        1.8743836402        8.2643999134
  H         4.1383252989        0.6634477710        9.3611541677
  H         5.2839491056        1.4325363417       10.3739214877
  C         6.6668297363        2.6478795287        8.3954141292
  H         4.8031282711        2.2363039418        7.4399463065
  H         5.6541134594        0.8532287877        7.9379913357
  C         7.8386563484        1.8073675935        8.8810806650
  H         7.0059728571        3.1164629792        7.4400766026
  H         6.3717357713        3.4717454381        9.0114713531
  C         9.0606370144        2.7370535352        9.3140057161
  H         8.0953117212        1.0328720485        8.1725533421
  H         7.5508559805        1.3745356510        9.7625049215
  C         8.6370613109        4.0747388129        9.9498679765
  C         9.5602871656        3.3965249468        8.0764481153
  C        10.1681643617        2.0225423345       10.1863996685
  C         9.0555106688        5.1290478791        9.1664098227
  C         7.8795140386        4.4654538209       11.0783423823
  C         9.5775089028        4.6867169761        7.9487204514
  C        10.1427002012        2.7490553818        6.9924168044
  H         9.7147141324        1.7038499230       11.0966394840
  H        10.4362109990        1.0458201012        9.6970940649
  C        11.4014672740        2.8226713232       10.5461465080
  S         8.7556232759        6.6681413991        9.8428113338
  C         8.0237705796        5.8318699715       11.2268760301
  H         7.4466300504        3.6976445811       11.6887719098
  C         9.9537422581        5.2809072265        6.7716700715
  H        10.1688858693        1.6946082442        7.0785948918
  C        10.4506702892        3.3137196561        5.7606356814
  H        11.0240517306        3.7869059540       10.7803310945
  H        11.9228099132        2.9753316406        9.6832101035
  C        12.3151421366        2.2781159263       11.5656098472
  C         7.4615994675        6.5706020855       12.4557625983
  C        10.3486205552        4.6382788212        5.6232873596
  H         9.8503481319        6.3510906028        6.7118762959
  C        10.9317520719        2.9281435166        4.5544973274
  H        13.2534866957        2.8572666291       11.5219248238
  H        12.6214630280        1.2772408343       11.2077165860
  C        11.8671201302        2.2945474782       13.0149217276
  C         7.5887934402        7.9522244429       12.6791632511
  C         6.9580043290        5.8201809500       13.5919371790
  C        10.5783012680        5.3429916825        4.3670427661
  C        10.8914360552        3.9598849641        3.6531895407
  S        11.2941331099        1.4121931761        3.8670654510
  H        11.4324878638        3.2652052985       13.1050799831
  H        11.0029391453        1.6082478817       13.1681608703
  C        12.9194376616        2.3611734996       14.0606169095
  N         8.0193997334        8.9014600846       11.7847560178
  C         7.2836838821        8.5701486615       13.9146011172
  C         6.6085773396        6.4228499124       14.7746379578
  H         6.7686639433        4.7593783593       13.4418196078
  C        11.8331221608        6.2222046906        4.3524736906
  C         9.3284678385        6.0022166646        3.7023359045
  C        11.2399305423        3.5244772128        2.3473969165
  C        11.4753117565        2.1503428555        2.3195944445
  H        13.5692576525        3.1542998659       13.6897856711
  H        13.4335092723        1.4096844773       14.1482488609
  C        12.2996571652        2.7384577793       15.4556555208
  S         8.0910138283       10.3805117407       12.4685743743
  N         7.5345853374        9.9391048299       13.9742295781
  C         6.8414169731        7.8182804836       15.0424548423
  H         6.2565387398        5.7786309473       15.5372765134
  H        11.6772800636        7.1584379731        4.9391250297
  H        12.0120261129        6.5279425601        3.3502671452
  C        13.0502028396        5.5691726761        4.9676090652
  H         8.9194881920        6.8459680234        4.2829458576
  H         9.6026712256        6.3888974493        2.7017873409
  C         8.1744466541        5.0437080381        3.4768827819
  H        11.1853184898        4.2294033991        1.5190633248
  C        11.8641124606        1.3635667044        1.0823616053
  H        11.8450150567        3.6691838836       15.4858928136
  H        11.6082498188        1.9582826032       15.6128365944
  C        13.2047477299        2.5777888775       16.6242471832
  C         6.6976779601        8.4497332757       16.3175765915
  H        12.8355238255        4.8628659196        5.7486421207
  H        13.5192578042        4.9420104541        4.2399121160
  C        14.0644061804        6.5900713916        5.4880697491
  H         7.8802970100        4.5997026613        4.4036760105
  H         8.5251606184        4.3700408711        2.6851329374
  C         6.9120528576        5.6647312821        2.9528548527
  C        11.9457296298       -0.0591600000        0.9925927027
  C        12.1434619233        2.0444418255       -0.2220882417
  H        14.1338768041        3.0644746933       16.4014716893
  H        13.4144384003        1.5047209380       16.7397813968
  C        12.5569484214        3.1380919671       17.9638092283
  H         6.8738980527        9.4889589144       16.2569724862
  C         6.2882901644        8.1321017122       17.6308104259
  H        13.5097274488        7.2700062889        6.1842263720
  H        14.5270781642        6.9721417134        4.5934375428
  C        15.1304339083        5.8741195303        6.3663223122
  H         6.0637206212        4.9700757153        3.2035371861
  H         6.7448340264        6.5431802124        3.5551371077
  C         7.0189384993        5.9223712846        1.4296664523
  N        11.6661142726       -1.0240485424        2.0030634462
  C        12.2159974267       -0.7311341206       -0.2363966480
  C        12.4342983939        1.3695251076       -1.4077338535
  H        12.2628789933        3.1255660184       -0.2088761546
  H        13.2420508355        2.8205592652       18.7785498383
  H        11.5722235172        2.6735061100       17.9573803591
  H        12.3834205557        4.2008489276       17.8463744411
  S         5.8041621926        6.5124896945       18.1598232852
  C         6.1089978386        9.2181664218       18.6569649361
  H        15.4547362428        6.5849864985        7.1421907376
  H        14.6529196334        4.9272874952        6.8460570802
  C        16.4539750677        5.5431533673        5.6624607363
  H         7.3145208605        5.0488921740        0.8972863982
  H         7.7647183594        6.6753704894        1.2588037383
  C         5.6078799379        6.3502023943        0.9083729212
  S        11.6753387728       -2.5157451248        1.3357876551
  N        12.1302417014       -2.0971017453       -0.1720762063
  C        12.5394493457       -0.0787453976       -1.4587500375
  H        12.6925656081        1.9231340935       -2.2357944148
  C         5.5562238488        7.3132682533       19.7115597124
  N         5.7318427893        8.6220435011       19.7791044314
  O         6.3979391327       10.4387593885       18.4821984231
  H        16.2795081889        4.9389805223        4.8153686023
  H        16.9147110815        6.4427477659        5.3151550435
  C        17.3078245197        4.7415105883        6.5597222056
  H         5.5464061054        5.9406780050       -0.0610641197
  H         4.7823668468        5.8229462242        1.4826065313
  C         5.3043967037        7.8471230224        0.7582526614
  C        12.6690097836       -0.9578835535       -2.6411045996
  S         5.1497064818        6.4374972420       21.1670707268
  C         5.8279576036        9.3960942367       21.0358046145
  H        16.5942389107        4.1309171417        7.1051448096
  H        17.8481938961        4.0108496411        5.8923670286
  C        18.3073180065        5.6167974592        7.4489942248
  H         5.2163542378        8.0991394959       -0.2742575579
  H         6.2030585147        8.3091636967        1.0815986762
  C         4.1232055608        8.3795700358        1.5926798488
  H        12.3828832084       -1.9706205292       -2.5836897571
  C        13.0951804250       -0.6639267426       -3.9219135723
  H         5.0979545691        9.0328887686       21.7150193909
  H         5.5316707523       10.4105783156       20.8686013666
  C         7.1526518392        9.1047065923       21.6428324492
  H        18.7564088861        5.0043092128        8.2621497852
  H        17.7670156495        6.4535686497        7.8602613231
  C        19.3860006654        6.2740125619        6.5669923223
  H         3.9736750720        9.4037222866        1.2393199452
  H         3.3248046168        7.7165779421        1.4272771032
  C         4.3316176673        8.3255343807        3.1033595399
  S        13.7238718340        0.8404591726       -4.5169083098
  C        13.3547033850       -1.8122112804       -4.8310685013
  H         7.9080793264        9.3053732791       20.9041111928
  H         7.2115226377        8.0743597934       22.0477645719
  H         7.4095954399        9.6954068946       22.5287392561
  H        19.0069433748        7.2217121987        6.2533078735
  H        20.3714232588        6.4875619283        7.0863520558
  H        19.6972335795        5.6927024346        5.6628403238
  H         4.3888081598        7.2871153725        3.4882775880
  H         5.2373354836        8.8470534086        3.3653037283
  H         3.5311236090        8.9133827613        3.4811107664
  C        13.9816466346       -0.0869580956       -5.9899255956
  N        13.8736567873       -1.4007826169       -5.9742718156
  O        12.9733369440       -2.9669696105       -4.5772293526
  S        14.6388513701        0.6176385789       -7.5668328225
  C        14.0775783059       -2.2077637076       -7.1886506123
  H        14.4065221938       -3.1909182724       -6.8545643268
  H        14.9619915206       -1.8045919008       -7.6066414026
  C        12.8403785109       -2.1985664136       -8.1665740866
  H        12.6774551351       -1.2798876773       -8.6720856768
  H        11.8720227316       -2.5235787192       -7.7051353778
  H        12.9203898075       -2.9423059663       -9.0154353634
