352
 i =   105600, time =    52800.000, E =       100.5343111374
  H        10.1137801592        4.4522804632       31.4639984518
  C        10.3189727245        5.3514303873       32.0232820749
  H         9.4081900888        5.9915048148       31.9356423232
  C        11.4754042872        5.9980947708       31.2582959320
  C        10.6016494971        4.9066161178       33.4720844080
  C        11.2433881677        6.1589876111       29.7550635435
  H        11.7535377045        6.9663502267       31.6602440920
  H        12.3698474670        5.4547005586       31.4574865249
  H        10.6366150307        3.8487665725       33.5632659442
  H        11.5405258027        5.2333903451       34.0034521865
  H         9.7278617896        5.2136972058       34.0656191539
  C        10.6795483804        5.0173797926       28.9050825944
  H        12.1806129786        6.3779497526       29.2786147176
  H        10.6402238408        7.0843142728       29.6696377671
  C        11.0373066490        5.3850452457       27.4193968761
  H        10.9749312629        4.0401608786       29.0444872847
  H         9.5051950365        4.9634094168       29.0770105924
  C        10.0793928266        4.7105396831       26.4201194828
  H        12.0475876539        4.9880619416       27.2330684439
  H        11.0254744347        6.4147152053       27.2066515783
  C         8.7246733399        5.5301388930       26.2645076686
  H        10.6918369356        4.6102639263       25.4858639399
  H         9.7335351203        3.7203992302       26.7539496719
  C         7.5196833770        4.8636159066       25.4976584375
  H         8.4569031430        5.7873886629       27.3169018421
  H         9.0386810190        6.4589183482       25.8182481606
  C         7.1227496162        3.4862179011       26.0720835543
  C         7.9068897660        4.2283807580       24.1819909307
  C         6.3890114612        5.8557556364       25.4804780802
  C         7.4231848565        2.3833814862       25.2517801378
  C         6.7049006375        3.0677675201       27.3341975102
  C         7.8881934302        2.8910145436       24.0059434239
  C         8.4752524097        4.8952567577       23.0761719994
  H         6.7638249459        6.8761236715       25.1302531837
  H         6.0241997725        6.1528083180       26.4341627230
  C         5.2337824213        5.4283996615       24.5601111303
  S         6.8665950407        0.8991940423       25.9188548684
  C         6.3800786333        1.7507292914       27.3621928315
  H         6.5942534179        3.8055811483       28.1205305361
  C         8.1049422585        2.3061809955       22.8001560268
  H         8.5187833414        5.9453365603       23.2734740010
  C         8.8120277136        4.3636481876       21.8593685274
  H         5.6865002517        5.3246134262       23.5646691383
  H         4.9139586111        4.4386092708       24.8156680139
  C         3.9568714616        6.2311398354       24.6011159638
  C         5.9393120734        0.9842270231       28.6597042930
  C         8.7044313005        3.0119330568       21.7103656271
  H         7.8410276501        1.2774430644       22.6617201590
  C         9.0476610811        4.8051149067       20.6056487056
  H         3.3083794964        5.8894627627       23.7166210792
  H         4.2493373900        7.2414298148       24.5353380717
  C         3.2705806209        6.1517419489       25.9741060897
  C         5.9529541332       -0.4173218974       28.8876091168
  C         5.5513520021        1.7586382248       29.8258184152
  C         8.9555790793        2.4209952695       20.4038936926
  C         9.1779771697        3.7884575060       19.7174856711
  S         9.3057579310        6.3675362388       19.9683691858
  H         2.3620644509        6.7598346328       25.9188704777
  H         3.9285762315        6.5881566764       26.6731702225
  C         2.7743702030        4.7825666495       26.4729008470
  N         6.4444292554       -1.3114279922       27.9501608590
  C         5.6238380089       -1.0565048005       30.0882938036
  C         5.1192706452        1.1751870799       31.0264871189
  H         5.4979351054        2.8717871603       29.7311309720
  C         7.7262439731        1.6539354845       19.8224583434
  C        10.3090879890        1.6685826312       20.5465896717
  C         9.4943482454        4.3057403371       18.4728544996
  C         9.7634323768        5.6557754091       18.5011927789
  H         1.8666123057        4.4508977588       25.8394200180
  H         3.5284002577        3.9512587422       26.3853163295
  C         2.2673523230        4.9422772226       27.9595738211
  S         6.3298103856       -2.8062931185       28.5277522217
  N         5.7945203015       -2.4237196332       30.0199706404
  C         5.2730072864       -0.2764442751       31.2466812695
  H         4.8577414719        1.8089084326       31.8982850008
  H         7.3925157270        0.8905642876       20.5712558880
  H         8.3473156026        1.1368511246       19.0948301480
  C         6.5911536057        2.4809585808       19.1805437161
  H        10.4972267200        1.3456981626       19.4922462457
  H        10.0979214173        0.7870136425       21.1303077952
  C        11.5018697909        2.4694717809       21.1562133664
  H         9.6488884284        3.6724177885       17.6096577857
  C        10.2119201111        6.4689943509       17.2985667026
  H         1.5536358008        4.0793075628       28.1721832957
  H         1.5884429625        5.7669293916       28.0660552352
  C         3.3088214889        5.0332247654       29.1079311116
  C         5.1274241550       -0.9610048715       32.5143608141
  H         7.0069034359        2.9243187059       18.3529339868
  H         6.4063752412        3.3073764306       19.9177536186
  C         5.4255406184        1.5961381163       18.8534857279
  H        11.1664397408        2.6290274704       22.1711085931
  H        11.5584895661        3.4752274521       20.7239330898
  C        12.9065113043        1.7961025508       21.2517445400
  C        10.3107909187        7.8574492483       17.1905183206
  C        10.4257477257        5.7013640714       16.0393011689
  H         3.7718934159        4.0687726640       29.2325548103
  H         4.1628072701        5.6623804020       28.8296392870
  C         2.6607586922        5.5141177574       30.3671003855
  H         5.4899682798       -1.9599386308       32.4737363469
  C         4.6808186875       -0.5712266315       33.7456656256
  H         5.1670876883        1.1174420603       19.7686493681
  H         5.7826136275        0.6995616103       18.3530314415
  C         4.3076908763        2.2440277753       18.0428090768
  H        12.8461192420        0.8298975500       21.7508545753
  H        13.0708344086        1.4394121362       20.1644192463
  C        13.9954749399        2.7070941202       21.5662563069
  N        10.2340465988        8.7301305941       18.2753643855
  C        10.5787188886        8.5297082893       15.9731643314
  C        10.6393787863        6.3909061756       14.8254901995
  H        10.1931809308        4.6968170678       16.0408840905
  H         3.0827619590        4.8973104107       31.1487388112
  H         2.7561247936        6.5739174530       30.6461457998
  H         1.6365390256        5.4302285984       30.3926333008
  S         4.1585587712        0.9945703161       34.2358183728
  C         4.7620803946       -1.5403180881       34.8308596820
  H         4.0225781886        3.2583976903       18.2835420909
  H         4.7034377188        2.2975785226       17.0068561435
  C         3.1490169124        1.3031768205       17.8999651867
  H        13.7646673170        3.3037795664       22.4012984216
  H        14.1447153746        3.3771800918       20.6847413683
  C        15.1773385590        1.7741438213       22.0478379048
  S        10.4112413542       10.2144845745       17.6461812052
  N        10.5731495738        9.8751752318       16.1220987676
  C        10.8063112609        7.8396663676       14.7702602790
  H        10.6726995878        5.7727343616       13.9591268002
  C         4.0868715955        0.3217083752       35.8843139386
  N         4.3117955707       -0.9784798867       35.9711856857
  O         4.9197833684       -2.7566850359       34.7096809725
  H         3.0370568169        1.0596197931       16.8730229127
  H         2.2954783588        1.9676607393       18.1649302337
  C         3.0929143295       -0.0878504646       18.6637467835
  H        14.7981912258        1.3029256052       22.9484122410
  H        15.4435860473        1.1075839002       21.2298216271
  C        16.4113257473        2.6684584533       22.4391316035
  C        11.0980704619        8.6120995158       13.5931797871
  S         3.8468238359        1.3064047709       37.3455322863
  C         4.3166876675       -1.7109666809       37.1815876149
  H         4.0499083849       -0.6377585603       18.5583698277
  H         2.8110476486        0.2024740431       19.6469050105
  C         1.9658399161       -1.0675184454       18.1753766736
  H        16.1047218869        3.3474211221       23.2164956203
  H        16.5871056530        3.2838211299       21.5628455197
  C        17.6502973918        1.8912182345       22.6901433172
  H        11.0432480590        9.6933684406       13.8252298104
  C        11.4136534076        8.2693286236       12.3320610204
  H         3.5275801471       -1.2655813469       37.8265862887
  H         3.8876761427       -2.7240234143       37.0601119425
  C         5.7618603839       -1.7223486184       37.6923848490
  H         1.1451425477       -0.5258839591       17.8124542882
  H         1.6270095789       -1.5402710582       19.0943937999
  C         2.2688672463       -2.0462383867       17.0715036716
  H        17.6062807315        0.9251667335       22.1702186636
  H        18.5334983145        2.4395593161       22.2892774523
  C        17.9338826540        1.7091485334       24.2046904781
  S        11.6387963105        6.6861474061       11.6663341814
  C        11.7040496957        9.4491600241       11.4556115475
  H         6.0733188253       -0.8140074484       38.2476722900
  H         5.8468297834       -2.5505900127       38.3454516472
  H         6.4985451390       -1.8118778626       36.8811626070
  H         3.0694858137       -2.7274370201       17.3761075827
  H         2.4612986899       -1.5773246061       16.0802157734
  H         1.3155884198       -2.5405690746       16.8788295073
  H        18.9288663197        1.4042917922       24.4003100562
  H        17.1862436572        0.9531175849       24.5922006318
  H        17.6292099775        2.6600273441       24.6642133421
  C        12.1669109906        7.5631219450       10.1927698022
  N        12.0607088375        8.9409013129       10.2342739222
  O        11.5991153222       10.6215609114       11.7206348189
  S        12.4966603871        6.8097990941        8.6758139641
  C        12.1971132693        9.9058872908        9.0887164488
  H        12.7437178734       10.7027782625        9.4408203840
  H        12.7796456788        9.4026187991        8.2862342542
  C        10.8515189913       10.2695671288        8.5377037721
  H        11.0319335095       10.8432147986        7.6402360550
  H        10.2236022554        9.3822993696        8.2139451565
  H        10.2369581063       10.8987621812        9.2140793494
  H         2.5993236772        3.5972540308       12.5855744192
  C         2.7361234463        2.4983176643       12.7266180696
  H         1.7668124910        2.0764045175       12.3490742533
  C         3.8966269948        2.0272515693       11.9379826164
  C         2.7410059397        2.1405367588       14.2131259874
  C         3.7857580193        2.1012563569       10.4314603800
  H         4.0482483530        0.9894656259       12.2555055385
  H         4.8928877641        2.5149700479       12.1290047080
  H         3.7422070887        1.9257270830       14.5161445785
  H         2.1142276613        1.2684183713       14.3272019591
  H         2.2586706125        2.8860043334       14.8045378304
  C         4.7736048476        1.1554770895        9.7318885561
  H         2.7598548703        1.7604608829       10.0949074971
  H         3.9309483526        3.1250616211       10.1272817006
  C         5.3054751976        1.6814652852        8.4242960705
  H         4.4826315294        0.1341991727        9.8337761703
  H         5.6262766805        1.1883853955       10.3269382452
  C         6.4876330633        2.6064748467        8.4439135973
  H         4.5104147804        2.1395898414        7.8434868172
  H         5.6203556286        0.7109477152        7.9398300833
  C         7.8015674065        1.8908607096        8.7936576125
  H         6.7627939378        3.0758418804        7.4850291246
  H         6.2365713621        3.4243773249        9.0954426285
  C         9.0690588401        2.8051468045        8.9874834372
  H         7.8917891489        1.0347345847        8.1674113029
  H         7.6315244904        1.3683871228        9.7552679741
  C         8.7158238567        4.1594642576        9.6701870241
  C         9.5397279072        3.5618110226        7.7142505602
  C        10.2511975006        2.1992183400        9.7340045039
  C         8.9051805602        5.2467267922        8.8637127700
  C         8.2088371401        4.5648569452       10.9431581268
  C         9.3813459643        4.9206166384        7.6215224280
  C        10.1368976949        3.0536057074        6.5670087425
  H         9.7798036274        1.8953860807       10.6430222101
  H        10.5906333558        1.3049807870        9.2186369673
  C        11.4308856498        3.1844969620        9.9756918698
  S         8.4590920056        6.7799879605        9.5466081116
  C         8.1283693519        5.9655005603       11.0749604007
  H         7.9496025553        3.7633321794       11.6862298504
  C         9.7578152143        5.6241499105        6.4976429233
  H        10.2374434957        2.0035925948        6.6038923586
  C        10.5340372213        3.7262040795        5.4501832847
  H        11.1160310253        4.1853038218       10.1303271772
  H        11.9620604794        3.2998270387        9.0110146022
  C        12.3601412892        2.6760657801       11.0532076338
  C         7.8963128340        6.6483578343       12.4062837416
  C        10.3176558617        5.0312977494        5.3595819703
  H         9.5711194241        6.6105726087        6.4077289140
  C        11.0991385054        3.3728659234        4.2292098303
  H        13.3371758362        3.1519222955       11.0411586622
  H        12.5388490871        1.6088072673       10.8864557847
  C        11.7853774780        2.7757382472       12.4144898347
  C         7.9287062371        8.0711809748       12.5850560609
  C         7.6585082433        5.8403915064       13.6400828711
  C        10.7718837376        5.7828926018        4.0997408830
  C        11.0942120092        4.4390394707        3.3418348128
  S        11.4451946837        1.8770394857        3.4168180413
  H        11.5990706269        3.8303949321       12.6253690566
  H        10.8679318468        2.1626743038       12.4530443885
  C        12.8282272540        2.4029735704       13.4852490560
  N         8.1626635043        8.9413263880       11.5996941552
  C         7.6823790039        8.6460637572       13.7984815148
  C         7.4026187202        6.4312761908       14.8831874906
  H         7.4825564043        4.7399029752       13.5454221653
  C        12.0568848057        6.6622195402        4.3100590615
  C         9.5998426378        6.5700767205        3.3852531002
  C        11.6029991077        4.0902252269        2.0682556805
  C        11.8444372963        2.7718358285        2.0153319392
  H        13.6069793143        3.0854149283       13.2683509858
  H        13.1308126223        1.3926168599       13.3577121023
  C        12.3285542738        2.5870919814       14.9295820798
  S         8.2402407629       10.4270794297       12.1947323350
  N         7.8517589116       10.0169194334       13.6996257125
  C         7.4026291362        7.9250505101       15.0333993191
  H         7.3475726802        5.8307942538       15.7488693248
  H        11.8259643461        7.4289927767        5.0465228687
  H        12.3998260349        7.1630313313        3.4466492488
  C        13.3574550917        5.9049835030        4.7514651601
  H         9.2512931257        7.2557363011        4.2031842531
  H        10.0564436711        7.2918008936        2.6886964281
  C         8.4714331476        5.7758731571        2.8382194166
  H        11.8304839202        4.8260753173        1.3156391157
  C        12.1655978406        1.9807713873        0.7740545482
  H        11.5122284157        3.2740169186       15.0248611049
  H        11.8605969856        1.6759638786       15.3057086738
  C        13.5199080317        2.8352243268       15.9328026422
  C         7.1782226891        8.6072641824       16.2425165112
  H        13.1959514456        5.5190457939        5.7161524029
  H        13.6555480375        5.0095011424        4.1085787440
  C        14.5678838165        6.9285994783        4.7826984561
  H         8.1609402390        4.9810355854        3.5592194015
  H         8.7789256395        5.2145023725        1.9607952936
  C         7.4738410416        6.6317710089        2.1837976540
  C        12.1803041466        0.5579069711        0.6930578527
  C        12.1300496844        2.7527430261       -0.5023138116
  H        14.2686474800        3.5185737379       15.4608596658
  H        14.0696642349        1.9156455413       16.1277717392
  C        13.0212403085        3.0754977457       17.3427960025
  H         7.4258095124        9.6414722653       16.1998307716
  C         6.8486490186        8.2584139578       17.5319094673
  H        14.3210908086        7.6152007115        5.6033604939
  H        14.4655463641        7.5459864953        3.8867968237
  C        15.9239152926        6.3119204061        5.1096811437
  H         6.9157816776        7.1080199605        2.9449778321
  H         7.9761054517        7.4382889225        1.6449357890
  C         6.5441094283        5.8244599559        1.2790513279
  N        11.9355198527       -0.3840094257        1.7111424957
  C        12.3365780881       -0.0861614349       -0.5442950629
  C        12.4797329440        2.1128168093       -1.6719341874
  H        12.0716293680        3.7879242202       -0.5043678648
  H        12.0780134862        2.5264402320       17.4260593164
  H        12.8375164706        4.1604275891       17.5565978722
  H        13.5638723780        2.5818815986       18.1277471502
  S         6.4646228020        6.6736361993       18.1107105314
  C         6.8794533771        9.2922840292       18.5906898279
  H        16.3067716298        5.6030160580        4.3352159390
  H        16.6069787063        7.2289174822        4.9936289717
  C        16.1116100944        5.7194722720        6.5645059803
  H         6.6466677574        4.7985520391        1.4975866368
  H         6.8102469060        6.0638126158        0.1888596508
  C         5.0671973426        6.0367089196        1.5950471098
  S        11.9025869928       -1.8791158955        1.0635271777
  N        12.4207881650       -1.4743058014       -0.4006094124
  C        12.6572512037        0.6495584786       -1.7508216661
  H        12.7436710240        2.7178049999       -2.5237872882
  C         6.2399325734        7.4419553846       19.6417976915
  N         6.4613518651        8.7365380246       19.7334559579
  O         7.2952535102       10.4256307458       18.3995098540
  H        15.9767224268        6.4711996949        7.2824168143
  H        15.3697432793        4.9770560534        6.7621463410
  C        17.5151943868        5.1571637080        6.8487872499
  H         4.5116500278        5.2587839203        1.1007859487
  H         5.0233765088        5.8411585216        2.6716893742
  C         4.6478175107        7.5003176798        1.1011646324
  C        12.9543654606       -0.0450681307       -3.0038096326
  S         5.8405201450        6.6673301825       21.1289768019
  C         6.6533673097        9.5273330096       20.9596722915
  H        17.5903797020        4.7136201868        7.8187921208
  H        17.6248690196        4.2767727234        6.1893660038
  C        18.5959272670        6.1540769100        6.6868763687
  H         4.1492777520        7.5049399155        0.0918705715
  H         5.4425778407        8.2704549762        1.1402590845
  C         3.6753509226        7.9727992972        2.0961960166
  H        12.7281953003       -1.0467056651       -2.9355910170
  C        13.3457204694        0.2273172016       -4.2996458973
  H         5.9530415829        9.1506101265       21.7833421542
  H         6.4107566164       10.6152049675       20.7554556685
  C         8.1177792974        9.4094340997       21.4705499619
  H        18.1810146670        7.1642224601        6.7287905764
  H        18.9610796995        6.1389612018        5.6428021286
  C        19.7863756324        6.0270935752        7.6514015895
  H         3.0430898106        8.7303233630        1.6761533050
  H         3.1295577135        7.1298144113        2.4417889405
  C         4.3997322715        8.7493925470        3.2565397593
  S        13.9312441003        1.7600952354       -4.7990403505
  C        13.2825250013       -0.8616695268       -5.3434111956
  H         8.4597536737       10.1295150836       22.1772853398
  H         8.9026576754        9.4983879955       20.7270979752
  H         8.1845635455        8.4366920878       22.0938738116
  H        20.6931326951        6.5924338616        7.4673307697
  H        19.3979445553        6.1496685155        8.6681412795
  H        20.0131118223        5.0584837644        7.5026193462
  H         5.4174814013        8.5966564196        3.2622747646
  H         4.3367527770        9.8581691734        3.0242272482
  H         3.9442963185        8.4466234073        4.2349514944
  C        14.1400892962        1.0064393119       -6.3674580375
  N        13.8294771366       -0.3224124368       -6.5270274626
  O        12.9627631961       -2.0617202570       -5.1531465855
  S        14.8015732198        1.9165623010       -7.7274561987
  C        14.0396784380       -1.0434117915       -7.7382241174
  H        14.3054607562       -2.0521893548       -7.4434923049
  H        14.9527540536       -0.7696183647       -8.2945204859
  C        12.7545535927       -0.9543431984       -8.4896943345
  H        13.0337148703       -0.7828812202       -9.5228741594
  H        11.9288686225       -0.3273351408       -8.2413951371
  H        12.3434611845       -1.9644431327       -8.5995249462
