352
 i =   106800, time =    53400.000, E =        99.9393966905
  H         9.7854636702        5.0190402743       32.4625877060
  C        10.4134045604        5.8318641247       32.6867581709
  H         9.6984623003        6.6809859945       32.8182509466
  C        11.2944466438        6.1054594725       31.4255949486
  C        11.1568502218        5.4076617279       33.9404924195
  C        10.4240981532        6.5782269563       30.2091499472
  H        11.9839983954        6.9462497782       31.5283031174
  H        11.7552690832        5.1929135100       31.1570829427
  H        10.4414572262        5.2587349063       34.7445601302
  H        11.6879593278        4.4208858989       33.8296383097
  H        11.8968918660        6.1675653122       34.2992065029
  C         9.9572408969        5.5469601939       29.1886257154
  H        10.8712640183        7.4708174419       29.6327372157
  H         9.4970837704        7.0464781469       30.5855760362
  C        10.5805499859        5.7648284292       27.7692081996
  H        10.2838266400        4.5975088565       29.4457276012
  H         8.7657423252        5.5283234295       29.2048911513
  C         9.6299067536        5.1808653243       26.6732334061
  H        11.4599048102        5.0765225061       27.7597731391
  H        10.9245227224        6.7527081893       27.6285684575
  C         8.5257169886        6.0629743667       26.2408720877
  H        10.1758021748        4.6850427915       25.8753211180
  H         9.1506292462        4.2535738271       27.0902164010
  C         7.3086608993        5.3743325664       25.4957022242
  H         8.1140062983        6.6967461665       27.0960834016
  H         9.0003252889        6.8538035334       25.6016676342
  C         6.8841083486        4.0503297282       26.0792631155
  C         7.6411343985        4.7350119740       24.1788596574
  C         6.1246607749        6.4483044473       25.4143471748
  C         7.0896490076        2.9818553680       25.2458958057
  C         6.3867686440        3.5554164518       27.3328152852
  C         7.5351203279        3.3742342818       24.0254863731
  C         8.1994046666        5.3214699206       23.0126085093
  H         6.3538519895        7.4275801551       24.9931681847
  H         5.8425621151        6.5786537433       26.4476534072
  C         4.8733649522        5.8416047314       24.6468639925
  S         6.8823418388        1.4425810565       25.9705750013
  C         6.2704989964        2.2104651507       27.3396913338
  H         6.2283456644        4.3005734519       28.1182717801
  C         7.9511866237        2.7186053395       22.8939701597
  H         8.3802773569        6.4041968388       23.0165565841
  C         8.6215491742        4.6708072646       21.8611136079
  H         5.0424888904        5.7566839591       23.5571339026
  H         4.7885726039        4.8479383001       24.8997753624
  C         3.5171581054        6.5920512292       24.7106059275
  C         5.7764194170        1.5184484849       28.5445988842
  C         8.5248594840        3.3436348478       21.7866810943
  H         7.8093129283        1.6257734088       22.9213447117
  C         9.0844893534        5.0773114701       20.6404498931
  H         2.9828729520        6.0829573255       23.8408940154
  H         3.6342528083        7.5858129361       24.3201824073
  C         2.8565976185        6.7383267593       26.1167476668
  C         5.9300873320        0.1166741067       28.8525019059
  C         5.3604293071        2.3111740325       29.7146624208
  C         9.0309563216        2.6232575661       20.5796937787
  C         9.3409689374        3.9329240455       19.8560805249
  S         9.3353093839        6.5560472865       19.8170964595
  H         1.9313171632        7.3310019768       26.0470305615
  H         3.5050505044        7.3854384618       26.7484401765
  C         2.6151415712        5.4008150117       26.8301771559
  N         6.3222603753       -0.8757335161       27.9551980800
  C         5.5852062693       -0.4218998362       30.0991792905
  C         5.2266983356        1.7201024998       30.9620089431
  H         5.5035991069        3.3713805672       29.7562355169
  C         7.9113795520        1.8452782622       19.8816286266
  C        10.2972803988        1.8276547619       20.9423716195
  C         9.8622595890        4.3235240443       18.6505198741
  C         9.8696270502        5.6646139205       18.4213144198
  H         2.2122075068        4.7554531845       26.0199264948
  H         3.5467254715        4.9612838026       27.2318384016
  C         1.6010446410        5.4129420815       27.9559946494
  S         6.3396920180       -2.2965379189       28.6597165536
  N         5.7569559395       -1.8119264022       30.1081420429
  C         5.1905871981        0.3148319364       31.2172537497
  H         5.1040110905        2.4222162043       31.7914778898
  H         7.7335290294        1.0289192677       20.5715934678
  H         8.2824203673        1.3337326632       18.9840208283
  C         6.5558728871        2.5159328987       19.7049923580
  H        10.8153740411        1.4934300656       19.9680933653
  H        10.0538577413        0.8742552192       21.4582594098
  C        11.3201041551        2.6829074391       21.5814368916
  H        10.0798732223        3.5140105329       17.9371587346
  C        10.2342476905        6.3153221628       17.0503408392
  H         1.0820334003        4.4145878148       28.0323686905
  H         0.7960814215        5.9426220446       27.6762300558
  C         2.1354488219        5.8724037401       29.3128171627
  C         4.9612282316       -0.2917991376       32.5255457827
  H         6.7142339277        3.3722857872       19.0823176128
  H         6.2099272296        3.0139131412       20.6821793623
  C         5.5500744074        1.4523139144       19.1927928279
  H        11.0663291901        3.1367599130       22.5377764836
  H        11.4477180840        3.4532756968       20.8452205775
  C        12.6883009026        1.8982042460       21.7457148803
  C        10.2190409724        7.7270212116       16.7392563433
  C        10.5030871650        5.4909680742       15.8556021481
  H         2.7376086923        6.7035949218       29.1035360211
  H         1.3137346401        6.2898902521       29.8856031745
  C         2.8914309870        4.7874586572       30.0707487807
  H         4.9129547992       -1.3483616265       32.5165063947
  C         4.7984268197        0.0825170559       33.8531198536
  H         5.4631288432        0.9067031769       20.1145616295
  H         5.9035955978        0.8408021943       18.3498078592
  C         4.1998267683        2.0296897352       18.7817028244
  H        12.5085094144        1.0347885620       22.3433133392
  H        12.9816244945        1.6426240899       20.6778813023
  C        13.7787906418        2.7092522308       22.4690061138
  N         9.8407134748        8.7040950338       17.6807418301
  C        10.6185573165        8.2640517545       15.5624373174
  C        10.6042043756        6.0330165193       14.5815273090
  H        10.5455237103        4.4368276780       15.8569109709
  H         3.8696281482        5.0528908636       30.5389498602
  H         2.3736904778        4.4170470845       30.9533583772
  H         3.1901058967        4.0103876912       29.3604177485
  S         4.6511566366        1.6524363196       34.4183150059
  C         4.7673909674       -1.0939585964       34.8967599344
  H         3.6949313447        2.3123797906       19.6473375331
  H         4.4617959317        2.9433501579       18.2594795086
  C         3.4334640267        1.0458305165       18.0319518749
  H        13.8110323236        2.3977959684       23.4607388443
  H        13.5746917461        3.7854924418       22.4640296314
  C        15.1345447883        2.6683515034       21.7661810115
  S        10.2313024185       10.1639500697       17.0960765234
  N        10.7036594783        9.6711731876       15.6201958550
  C        10.8048855802        7.4758522473       14.3700754381
  H        10.7043823253        5.4148881117       13.7405390722
  C         4.4358359070        0.8843995857       36.0130931130
  N         4.4999148007       -0.5100138012       36.1180859920
  O         5.0119845104       -2.2578746306       34.6283290939
  H         4.0309179386        0.6439062461       17.2156026306
  H         2.7566663214        1.7238422480       17.4597626891
  C         2.4117191967        0.1443981566       18.7908391122
  H        15.5505249258        1.6780037276       21.5861567599
  H        15.1237102052        3.0174022301       20.7631001017
  C        16.0693172965        3.4873657594       22.6324061357
  C        11.0066422191        8.1537753653       13.1144391700
  S         4.0840812777        1.7793990667       37.4762542990
  C         4.4913874722       -1.2626980816       37.4168777698
  H         2.9671835159       -0.4019651993       19.5246129986
  H         1.7011190339        0.6497971266       19.4129042060
  C         1.6377294961       -0.8383044358       17.9212818428
  H        15.7284491569        3.4606839302       23.6433000302
  H        15.8894897427        4.5535721572       22.4308548565
  C        17.5163280197        3.0896381785       22.4859899337
  H        10.5503310092        9.1554999115       13.1262369549
  C        11.7399157335        7.8485051863       12.0474698299
  H         3.8783678242       -0.7523500521       38.1147538273
  H         4.0747502088       -2.2733400322       37.3220005155
  C         5.8742327593       -1.3736718816       37.9444170362
  H         1.1274392592       -0.2146409170       17.2079772130
  H         0.8440800084       -1.3157784600       18.4519227422
  C         2.4439130809       -1.9617043723       17.3402279728
  H        17.7284027318        2.4612416986       21.5535979721
  H        18.0949108119        4.0330072112       22.4190125212
  C        17.9711526357        2.2747498141       23.6659983817
  S        12.4939931136        6.3643153277       11.7016605147
  C        11.9207539032        8.9002331009       11.1267335095
  H         6.2343214418       -0.4064884726       38.3458481046
  H         5.9307936981       -2.1213688025       38.6937570053
  H         6.5340961311       -1.5760831276       37.1074330760
  H         2.6926722476       -2.5181462299       18.2453111714
  H         3.3786372789       -1.5755922696       16.8660173621
  H         1.9362980800       -2.5474679526       16.5770464393
  H        18.7881693928        1.5713839276       23.5306442868
  H        17.1489614509        1.7441123274       24.0902697496
  H        18.2398862919        2.8808224298       24.5624528169
  C        12.9671334641        7.1688064172       10.1997845264
  N        12.6037928500        8.4418016798       10.0952367488
  O        11.4857831175       10.0598245350       11.2643402628
  S        13.9615518334        6.4627037813        8.9136656851
  C        12.7184441173        9.2885884851        8.9018136256
  H        12.8355777250       10.2962643348        9.1610709392
  H        13.6478010490        8.9561462580        8.3766280321
  C        11.4927557708        9.1923901359        7.9586292002
  H        11.2073803934        8.1720079360        7.8526458372
  H        10.6315122987        9.7417077883        8.3502493799
  H        11.6975300791        9.5750793114        6.9801596693
  H         2.5457527763        3.4488204443       12.0537835804
  C         2.8164539610        2.3612823989       12.1142682498
  H         2.0614318590        1.7706763707       11.5322576014
  C         4.0358647200        2.0781116357       11.4472941324
  C         2.8668385622        1.8900232390       13.6282858641
  C         4.1330149935        2.5710377686        9.9422123769
  H         4.0680130218        0.9576068756       11.4200756183
  H         4.9694774199        2.3873912649       12.0043952239
  H         3.8237670619        1.5985905978       14.0036303749
  H         2.1642846036        1.0805468890       13.7889452545
  H         2.3895557401        2.6914106880       14.1532851753
  C         4.9040076016        1.6007901093        9.0913049820
  H         3.1521315704        2.6138311374        9.4554442432
  H         4.5497883001        3.5895168292        9.9710935880
  C         5.6746300770        2.2266037815        7.9057234101
  H         4.1867466804        0.8701032483        8.7318268231
  H         5.5701176926        0.9902833531        9.7039622874
  C         6.9178291405        2.9857355427        8.2721404842
  H         5.0753857409        2.8533329201        7.2557839677
  H         6.0844287649        1.3706646622        7.2926337619
  C         8.2431683322        2.1162955177        8.5631568714
  H         7.0663030851        3.7672691931        7.5630005526
  H         6.7224841149        3.5468738068        9.1848542905
  C         9.5476770669        3.0275809283        8.8933772545
  H         8.4081406083        1.4112161351        7.7461003591
  H         7.8863357424        1.3858949369        9.3092545920
  C         9.1398299740        4.3370383613        9.5943019748
  C         9.9341727270        3.7724510642        7.6957139224
  C        10.6226605299        2.4132286917        9.7923141206
  C         9.2945626147        5.4588604279        8.8207479485
  C         8.8087889750        4.6529106443       10.8862932469
  C         9.7987416249        5.1151193205        7.6282969662
  C        10.4200725033        3.2249182346        6.5386315324
  H        10.1726310020        1.9497304056       10.6872164848
  H        11.0547517629        1.6258529864        9.1759345176
  C        11.8560971936        3.2145880575       10.0680115284
  S         8.8212139694        6.8884594427        9.5160384518
  C         8.6683588125        6.0215064927       11.0342059538
  H         8.6066938798        3.8649515116       11.5422373616
  C        10.1688185342        5.7630955878        6.4388870719
  H        10.4715647232        2.1894817866        6.6768533279
  C        10.7830269282        3.8711580289        5.3855204692
  H        11.6284689389        4.1136691412       10.6804850327
  H        12.4289095206        3.5092080226        9.1330928499
  C        12.9013228354        2.5348760821       10.9168354384
  C         8.0540735415        6.6660886153       12.2841581863
  C        10.6645816135        5.2040477312        5.2727131875
  H         9.9380251828        6.8731433440        6.3313144319
  C        11.0575523697        3.4503866581        4.1225997176
  H        13.8558281784        3.0481970266       10.9657240197
  H        13.1022950411        1.5854044806       10.4916585790
  C        12.3533031064        2.4057732501       12.3677145632
  C         7.9661633883        8.0317205843       12.6058719707
  C         7.5848704140        5.7440634326       13.3629524949
  C        11.0976635275        5.9000411601        4.0118602293
  C        11.2536908350        4.5493222445        3.3087084555
  S        11.2161082112        1.8541943592        3.4020930072
  H        11.5589466837        3.0888548162       12.7388314101
  H        11.9993345031        1.3848862997       12.4210590175
  C        13.3736824376        2.5621032579       13.5056732687
  N         8.1992911279        9.0768289551       11.7059375627
  C         7.6848505536        8.5305386173       13.8897515310
  C         7.3052789638        6.1879413403       14.6936252053
  H         7.4257253291        4.6888063572       13.0914355475
  C        12.4544757332        6.6472329592        4.1665605518
  C         9.9331215386        6.7955983829        3.4723860693
  C        11.6112598987        4.0673169783        2.0424769115
  C        11.5255422936        2.6890192041        1.8980693982
  H        13.9870031428        3.4173360009       13.4249515715
  H        14.0635479376        1.8105185924       13.2789845327
  C        12.6873716816        2.6069618949       14.8432668532
  S         7.9676535040       10.5103691527       12.4818145528
  N         7.4773402679        9.9032017807       13.8862865541
  C         7.4430127529        7.6531093477       15.0267742436
  H         7.1468837149        5.5150726429       15.4804301528
  H        12.3947768682        7.4093397250        4.9538259428
  H        12.7676931755        7.1589313907        3.2647582261
  C        13.7028907516        5.9452507782        4.6527249550
  H         9.8805532457        7.6908745511        4.1992432455
  H        10.2853932560        7.1996924356        2.4692622399
  C         8.5027504034        6.1283829078        3.2829835318
  H        12.0066304792        4.7674351316        1.3189743381
  C        11.8588346209        2.0137436050        0.6463927159
  H        11.9472602042        3.4044197610       14.9444003749
  H        12.0024860294        1.7938186662       15.0201358366
  C        13.7002167609        2.7508724785       16.0388616482
  C         7.0682372998        8.2394628276       16.2799454886
  H        13.5606307826        5.3684787166        5.5293338068
  H        14.0462878107        5.1731529800        3.9058282169
  C        14.8014666460        6.9380185877        4.9506254148
  H         8.1561249792        5.7174197074        4.2373789713
  H         8.3342119714        5.3420139881        2.5153314212
  C         7.5287896812        7.2814522531        2.9401847652
  C        11.9046546432        0.5949871756        0.5074289965
  C        12.0488037057        2.7347601009       -0.6656324927
  H        14.3715981739        3.6227262604       15.7966964568
  H        14.3499339783        1.8582197939       16.2175176887
  C        13.0487347391        3.0640689107       17.3685085704
  H         7.3200962238        9.3367962367       16.2616827423
  C         6.6766162293        7.6866158355       17.4744275463
  H        14.5218471761        7.3877430700        5.9247806666
  H        14.7908407010        7.8098315434        4.2774436392
  C        16.1777245424        6.3124092410        5.0720901614
  H         7.3670208052        7.9760930464        3.7648352822
  H         7.8447424510        7.8164302039        2.0627737741
  C         6.1895423497        6.7253665150        2.5432515992
  N        11.8924389290       -0.3493804547        1.5321825928
  C        12.2052152347       -0.0571312072       -0.7097467936
  C        12.2252510779        2.0755223642       -1.8764310723
  H        12.1073141395        3.8286151716       -0.6528431464
  H        12.2959248714        2.3247385515       17.6101631902
  H        12.5355039585        4.0392857498       17.3075880011
  H        13.8317544953        3.0209507678       18.1195826951
  S         6.1451306609        6.0944208794       17.8347249729
  C         6.5986517896        8.5602898725       18.7154539955
  H        16.6057714799        6.1822059545        4.0684699143
  H        16.9556743552        7.0792153756        5.4328961592
  C        16.3464734217        5.0997697399        5.9806072443
  H         5.8392549858        6.1398710325        3.3411053359
  H         6.1698664212        6.0264945484        1.6721627314
  C         5.1832365571        7.8394538548        2.2605580692
  S        12.0347405173       -1.8505394146        0.9666621841
  N        12.3423037826       -1.4483400960       -0.6023988999
  C        12.3709890428        0.5991186245       -1.9160070264
  H        12.2884596590        2.6598690604       -2.8017803523
  C         5.8153017296        6.6319725935       19.5043476773
  N         6.1894338611        7.9314659930       19.8270500147
  O         6.9943399402        9.7412836178       18.6365212344
  H        15.8331787532        5.2786834584        6.8887051420
  H        15.8038595849        4.2890560062        5.5192163305
  C        17.7424911857        4.6339758900        6.3064748657
  H         4.1986207306        7.6723352626        2.6224473054
  H         5.3957421096        8.7758003510        2.7717340738
  C         5.1687106661        8.0950203928        0.8121218798
  C        12.6963359739       -0.2331927913       -3.0419879920
  S         5.4247708623        5.7041798565       20.9827231651
  C         6.0396346466        8.6106835337       21.1789671570
  H        17.5924778199        3.6247563040        6.6124843799
  H        18.3517727234        4.7036611669        5.3646545064
  C        18.4200636809        5.4049978018        7.4178141944
  H         5.0695449215        7.0854153033        0.3480971375
  H         6.1260264916        8.5026101765        0.5021027459
  C         3.9718288622        9.0695738618        0.4384804151
  H        12.6033729754       -1.3168596788       -2.9592682933
  C        13.1557934192        0.1038417816       -4.2971173842
  H         5.5255281889        7.9215508202       21.8454270266
  H         5.2873974179        9.4362412766       21.0066573192
  C         7.2666396404        9.2519915479       21.7282522606
  H        18.5221608518        4.7319331164        8.2475365498
  H        17.8076632369        6.2368653626        7.7921548436
  C        19.7670682210        5.9827379513        6.9985412941
  H         3.8920618802        8.9010228393       -0.5962138517
  H         3.0369495632        8.7335137113        0.8323082892
  C         4.2144550741       10.5017501339        0.7810077817
  S        13.6361783601        1.6612282657       -4.8728509428
  C        13.2816410456       -1.0296527768       -5.2925982147
  H         7.3225680085        9.2064107616       22.8045200516
  H         7.3848835031       10.2629725526       21.3871927164
  H         8.1348012799        8.6053244072       21.3547248119
  H        19.7220678984        6.8388348897        6.2915052108
  H        20.3708149731        6.2812170259        7.9399190943
  H        20.3854812751        5.1847066460        6.5253605088
  H         4.9567769840       10.9415955738        0.2064117501
  H         3.2768656035       11.0840964244        0.4780225084
  H         4.3634746493       10.7069918553        1.8476135425
  C        13.9842734447        0.8706348376       -6.3908906757
  N        13.8867105669       -0.5130412147       -6.3697400244
  O        12.8510085802       -2.1706914615       -5.0400373081
  S        14.5386610519        1.6742686717       -7.9147136524
  C        14.1889878794       -1.3323574766       -7.5553711136
  H        14.3859248318       -2.4145891166       -7.3068538693
  H        15.0501706283       -0.9109957477       -8.0795291697
  C        12.9722026791       -1.3419029719       -8.4429262526
  H        12.0255681594       -1.3325413375       -7.9655865046
  H        13.0264960488       -2.2792234932       -9.0812952422
  H        13.1668045884       -0.5300826867       -9.1754132078
