352
 i =    62200, time =    31100.000, E =        98.3525254316
  H        12.3522142590        5.0625544844       32.4969500463
  C        11.2587430929        5.1873604207       32.3301149018
  H        10.7980343681        4.2543438142       32.2138467913
  C        10.9017924874        5.9796307581       31.0981820989
  C        10.6812106433        5.8859577807       33.5385016877
  C        10.9211599230        5.2539055363       29.7740303326
  H         9.9385887984        6.4189635572       31.2878173174
  H        11.7224925511        6.6875442368       31.0712651931
  H        10.7918173699        5.2188336327       34.3627470954
  H        11.2003788106        6.8453268702       33.7067477596
  H         9.5913976152        6.0475695225       33.4629407975
  C        10.5742126171        6.2768545634       28.6979146123
  H        10.2104902714        4.5038740163       29.7391338386
  H        11.8990294483        4.7929513198       29.5015857669
  C        10.6335120437        5.8733688943       27.2345109785
  H         9.5954979230        6.5469110438       28.9789381296
  H        11.3194832952        7.0678720393       28.9511504041
  C         9.5112433894        5.0946829076       26.6400755132
  H        11.5135859891        5.2549069372       27.0017101431
  H        10.9190484298        6.8068020113       26.8117622662
  C         8.3249191481        5.9966832699       26.0885480145
  H         9.7582378697        4.4515429571       25.7805576676
  H         9.2119185902        4.3306183763       27.3798551630
  C         7.2673147683        5.3142379660       25.2586925358
  H         7.8118776644        6.4075308285       26.9851051992
  H         8.6502486340        6.9427054334       25.6145631410
  C         6.8114936751        4.0403623839       25.9831160653
  C         7.6276654921        4.5719363341       24.0087266205
  C         6.0447955575        6.2806404587       25.1483956208
  C         7.0216749494        2.8882350105       25.2046638508
  C         6.4023344297        3.6075924397       27.2584539940
  C         7.6041749312        3.2152388179       23.9371225066
  C         8.1540686909        5.1628088348       22.8529318170
  H         6.3173677944        7.2733909099       24.7558509263
  H         5.7719915847        6.4949355883       26.1946010360
  C         4.7503688043        5.6803533875       24.5113253096
  S         6.5615991319        1.3756102000       25.9436979153
  C         6.1999345331        2.2534836692       27.3747821342
  H         6.1478819105        4.2563077546       28.0452709885
  C         7.9553221054        2.6086151688       22.7892096451
  H         8.2160980692        6.2989639374       22.8306268528
  C         8.4952230502        4.5260598329       21.7113049129
  H         5.0258697615        5.5996564648       23.4619497318
  H         4.4466492331        4.6683897559       24.7968774541
  C         3.5045747062        6.6075341428       24.4779515302
  C         5.6674821477        1.7054540045       28.6636207536
  C         8.4515222822        3.1987551940       21.6148572134
  H         7.9451750818        1.4671823466       22.7981688578
  C         8.9747122100        4.9913317103       20.5081315452
  H         2.9020355470        6.2772366194       23.6615694691
  H         3.7561327956        7.5573807925       24.0311562230
  C         2.5544467671        6.7047268603       25.7583871988
  C         5.6276586504        0.3250131549       28.9960182851
  C         5.0748851579        2.5861586110       29.7284758815
  C         8.9533890244        2.5494155610       20.3997856588
  C         9.1371415772        3.8832897744       19.6738697661
  S         9.4244270764        6.4890401894       19.8296196826
  H         1.7381271924        7.3567641262       25.5004428260
  H         3.2675197116        6.9776070434       26.5976434663
  C         1.8823477559        5.4028222446       26.1955932782
  N         6.1195823456       -0.6126293548       28.1026960584
  C         5.1593311600       -0.2417269990       30.1842026864
  C         4.6324770212        1.9992453997       30.9180135853
  H         5.0248954879        3.6261461089       29.5428150726
  C         7.7740520584        1.7704451720       19.7943036001
  C        10.2849151458        1.7833023241       20.6463790346
  C         9.4329286581        4.3278122029       18.3664829411
  C         9.6179478394        5.6708272424       18.3279680846
  H         1.0687048611        5.0880080391       25.5067799699
  H         2.6752615512        4.6591350157       26.1619218770
  C         1.2835213060        5.5019136611       27.5883470101
  S         6.0474776926       -2.0641261225       28.8585272476
  N         5.4799396399       -1.6018696262       30.2661565842
  C         4.7494142601        0.5327339275       31.2584318024
  H         4.2744019050        2.6263719412       31.7313931576
  H         7.4500635772        1.0597751867       20.5280101871
  H         8.0851246241        1.3082877928       18.8297052904
  C         6.5617100692        2.6599446213       19.3997314917
  H        10.6029413318        1.2869044474       19.7287604320
  H        10.1785222868        1.1102455181       21.5351322564
  C        11.4159483833        2.6881687145       21.0715678352
  H         9.5432488234        3.4713137869       17.5957642116
  C         9.9456018620        6.4302055636       16.9821790177
  H         0.5603499114        4.6839820189       27.6876392888
  H         0.6271574720        6.3005001179       27.8232948969
  C         2.2744433609        5.2920021666       28.7682077014
  C         4.5061647245       -0.1458676508       32.4849980965
  H         6.7187297399        3.4288312913       18.6678541887
  H         6.2565463037        3.0507044858       20.3354219231
  C         5.4264639372        1.8634680718       18.7009185466
  H        11.2515942332        3.2224466356       21.9469499093
  H        11.7498672889        3.3952943570       20.2682305184
  C        12.6527415759        1.7873052002       21.3578645753
  C         9.9638825275        7.8435170835       16.7768492095
  C        10.1738477527        5.7443952769       15.7379838299
  H         2.7649130604        4.3162888732       28.8261848568
  H         3.0848583185        5.9851171220       28.5123836384
  C         1.6369569277        5.5573196727       30.1499514203
  H         4.4382451365       -1.1611917794       32.4680527205
  C         4.3403376589        0.4048277034       33.7628095209
  H         5.5659739867        0.7927334100       19.0747497805
  H         5.6301354674        1.8200170777       17.6484814089
  C         4.0240105176        2.2340385137       19.0366950652
  H        12.4094535316        1.0415733688       22.1078252622
  H        12.7981147946        1.2556115630       20.4508134875
  C        13.9992594978        2.4251862180       21.6417015081
  N         9.5705202177        8.8251053262       17.7058634145
  C        10.3613223038        8.4451413007       15.5996507445
  C        10.4380495724        6.3119231018       14.4835148407
  H        10.1819692728        4.6767791680       15.7949308580
  H         0.9387272542        4.7512448537       30.5090997924
  H         2.3647574517        5.5930592022       30.9687407616
  H         1.1965593391        6.5260567202       30.1074634843
  S         4.2457598421        2.0367750842       34.2159950850
  C         4.3429632440       -0.5135816483       34.9149956293
  H         3.9919929069        2.5325745720       20.1214986375
  H         3.5955426890        2.9921274276       18.3747931417
  C         3.1521594715        1.0002716861       18.9065988972
  H        14.1259351727        3.3825428069       21.0769108315
  H        14.8003447435        1.7805792829       21.1723113584
  C        14.2240851226        2.6467281783       23.1199145139
  S         9.7385617471       10.3395286067       17.1591773454
  N        10.3379014956        9.8348798631       15.7010124229
  C        10.5869727568        7.7731403408       14.3784897770
  H        10.6970842645        5.7093465471       13.6268044575
  C         4.2147281520        1.4934786959       35.9336284219
  N         4.2524860738        0.1652930567       36.0733469545
  O         4.2531958773       -1.7530779370       34.7391197610
  H         2.1732665000        1.2209274903       19.3038271413
  H         3.4169367808        0.2164241623       19.5561925361
  C         3.0598615303        0.4731053371       17.4761397200
  H        13.4389546675        3.2350851953       23.6245847717
  H        14.3101057937        1.6704603755       23.6574127403
  C        15.5597218724        3.3146730576       23.3177933619
  C        10.9358718503        8.5356658297       13.2304792237
  S         3.9907506404        2.4054332639       37.4255213373
  C         4.2934103060       -0.5497641721       37.3351638139
  H         2.5595619538        1.1118596730       16.7882072297
  H         4.0764426869        0.2815353385       17.0132464625
  C         2.6587575891       -1.0045605122       17.3756535257
  H        15.6994047282        3.4195821564       24.3722836397
  H        15.3943642118        4.3005688977       22.7622782513
  C        16.7840581046        2.6540153239       22.6844187519
  H        10.7985055586        9.5844554472       13.2746964719
  C        11.4935446248        8.1613833452       12.0470230393
  H         3.7927481241        0.0567874722       38.0574819221
  H         3.6350753035       -1.4148014318       37.2627257806
  C         5.7027937826       -1.0021593495       37.7241548706
  H         3.3627902541       -1.5822945797       17.9458985693
  H         2.7053334026       -1.4617967230       16.3971819961
  C         1.2318405584       -1.1766000863       18.0104074169
  H        16.7580642442        2.4298228398       21.5942243039
  H        17.5725268776        3.3927917967       22.6087567151
  C        17.3526919435        1.5170391455       23.6064220390
  S        12.0528649761        6.5670727802       11.5411414637
  C        11.6378296592        9.2416925142       10.9956111577
  H         5.7990249858       -2.0545936797       37.8332641898
  H         6.4844706407       -0.7173777122       37.0328833403
  H         5.9472401637       -0.5093958250       38.6652894858
  H         0.6599570705       -2.0082697754       17.5320664030
  H         0.6393356778       -0.2719798806       17.8157052743
  H         1.2731125429       -1.2677371488       19.0781381205
  H        16.7598488056        1.3863713144       24.4641725455
  H        18.2738393852        1.9506105759       24.0676787449
  H        17.6474383262        0.6110138774       23.0878826263
  C        12.4626979055        7.3636416969       10.0199429484
  N        12.1773868948        8.6884624132        9.9050579066
  O        11.1287063187       10.3521285967       11.0393173877
  S        13.0244196207        6.5510616239        8.5732169004
  C        12.2572765096        9.5394279678        8.6344987843
  H        12.4096921008       10.5755091667        8.8886616787
  H        13.1068695361        9.3098664013        8.0707099837
  C        11.0525991413        9.4999667455        7.6918918339
  H        11.1433507329        9.8077914059        6.6718260478
  H        10.7462939363        8.4530121551        7.6408382533
  H        10.2517955629       10.1271035530        8.1644650022
  H         4.4653874470        1.3545674497       12.3520808159
  C         3.8706532912        2.2438069840       12.5743111185
  H         4.6107762217        3.1249325704       12.6041334116
  C         2.9076623656        2.3509705736       11.3742359561
  C         3.2089201697        2.0737948631       13.9291965439
  C         3.6690217346        2.8435051899       10.1120184904
  H         2.0953251598        3.0642402145       11.5738067662
  H         2.5320101129        1.3585001913       11.1503358372
  H         4.1033549256        1.7784688218       14.5527297008
  H         2.4822667433        1.3054139668       13.9621037284
  H         2.8019464969        2.9843672342       14.3417056796
  C         4.4824009775        1.7724937431        9.5829087556
  H         2.8839839392        3.2193781778        9.3769492685
  H         4.2203645824        3.7217412833       10.4380211262
  C         5.1304277664        2.1991045607        8.2661264597
  H         3.7472577140        0.9956042970        9.2508744952
  H         5.3054085519        1.4432540767       10.2127734104
  C         6.3901924648        3.0030073035        8.4012917033
  H         4.3518961972        2.6949193581        7.6166079596
  H         5.3437982850        1.3436114937        7.6581075033
  C         7.6212725244        2.1904008527        8.8847873184
  H         6.5964920377        3.3831261466        7.3723104167
  H         6.0977832012        3.8552825012        9.0004540794
  C         9.0026516520        2.9413693612        9.0065630027
  H         7.6427032363        1.3335264380        8.1537703128
  H         7.3956148905        1.7209116699        9.8679893494
  C         8.6709252952        4.2780966884        9.5823963761
  C         9.4714202004        3.5794693332        7.7420015476
  C        10.0769646561        2.2164327951        9.8664566416
  C         8.8991681858        5.3271906477        8.7988609445
  C         8.1319108292        4.6338469849       10.8183053099
  C         9.3855463924        4.8818605835        7.5891287430
  C         9.8545940503        2.9311651358        6.6112488649
  H         9.6504916062        1.6474504234       10.6234165770
  H        10.4784344620        1.5051635333        9.1862170472
  C        11.2408524569        3.1214599613       10.2856595518
  S         8.4835881570        6.8682522317        9.6017199680
  C         7.9570432030        5.9923260352       10.9459892506
  H         8.0123554585        3.8832165805       11.5867082429
  C         9.9059237065        5.4877435775        6.4972604599
  H         9.7596646271        1.8304532512        6.5366843040
  C        10.2677733941        3.5269469273        5.4472216739
  H        10.9228822740        4.1479676605       10.6470133044
  H        11.8436861392        3.2937612713        9.3789131354
  C        12.2125086169        2.5382920981       11.4269008765
  C         7.5115186778        6.6325907046       12.1894917619
  C        10.3888575856        4.8756084295        5.3453708200
  H         9.9305409642        6.5011491622        6.5411821332
  C        10.6919326787        3.1218401113        4.2275211959
  H        13.0572709212        3.1989116432       11.5821596656
  H        12.6172474857        1.4944997880       11.1541351095
  C        11.4095750277        2.4673411533       12.6407465897
  C         7.6736514928        8.0027507226       12.4504042663
  C         6.8980633799        5.8181911455       13.2612316680
  C        10.9681860686        5.5053563624        4.1175404214
  C        11.1920194604        4.1626933631        3.4429932864
  S        11.0523881948        1.5741796332        3.5362560026
  H        11.2308938848        3.5571796668       12.9499855740
  H        10.4910187385        1.9379506926       12.4901178187
  C        12.1613341412        1.7565468961       13.8189793411
  N         8.2000773632        8.9762500736       11.5185115600
  C         7.3739980793        8.5471271701       13.6707166548
  C         6.6703785890        6.3467969921       14.5060688112
  H         6.6041473825        4.7727248408       13.1150923993
  C        12.3025208232        6.1280504775        4.4344189342
  C         9.9515824614        6.3898422814        3.2940145096
  C        11.5048019964        3.7380374759        2.1618445140
  C        11.3761728765        2.3848314369        2.0847835899
  H        13.1976195795        1.8260175207       13.4410370456
  H        11.9295634560        0.7592831733       13.8527859803
  C        11.9218002874        2.4356481564       15.1716411968
  S         8.1267960720       10.4657530851       12.1767897641
  N         7.5579397173        9.9166547870       13.6431848759
  C         6.8705666724        7.8425563427       14.7280864574
  H         6.3471963541        5.5867992100       15.2190302485
  H        12.0465848844        6.6162088447        5.3227367023
  H        12.5302863823        6.8462820623        3.7109557088
  C        13.5301645066        5.1407009675        4.6333368747
  H         9.7295614101        7.0940920196        4.0418728458
  H        10.3902594806        6.9699222347        2.5135234287
  C         8.7568772583        5.6868176282        2.5782732665
  H        11.7170846762        4.4093498926        1.3024377844
  C        11.5546884395        1.6624640452        0.7940381535
  H        12.0348905777        3.5109928494       15.1678818240
  H        10.8779261877        2.2250875519       15.5583817642
  C        12.9502619490        2.0004588407       16.2052783274
  C         6.6935122999        8.5567186602       15.9363540115
  H        13.3605192336        4.3707549970        5.3035615129
  H        13.7368396475        4.6516448756        3.6568747591
  C        14.7739716781        5.9718308333        5.0413067370
  H         8.6617632148        4.7046499826        3.0746390671
  H         9.0948067144        5.5145689116        1.5747604913
  C         7.4450194978        6.5728891549        2.5262657983
  C        11.7076539289        0.2485193124        0.7014373059
  C        11.7683180934        2.4130238636       -0.4637857744
  H        13.9958332063        2.2873185699       15.9581658737
  H        12.9283246738        0.8882673444       16.2554139669
  C        12.7637617149        2.4377249938       17.6549946749
  H         6.9121661410        9.5948229155       15.9727909301
  C         6.4717281637        8.1394889294       17.2128377507
  H        14.5276422667        6.7705289809        5.6981128914
  H        15.2556013727        6.4584857719        4.2111836350
  C        15.7369965127        5.0886877973        5.9133025564
  H         7.2483184540        7.0129139027        3.4521879207
  H         7.5389726671        7.4549219220        1.9316482491
  C         6.0839420060        5.9012145923        2.1069614406
  N        11.6138453202       -0.6293053173        1.7717166175
  C        12.0037410030       -0.4499328107       -0.4782680784
  C        12.0217499368        1.7554116518       -1.6611712976
  H        11.6279098691        3.5082903547       -0.5263666652
  H        12.9637419646        3.5662773971       17.7147407505
  H        13.5479669012        2.0455933322       18.3264829475
  H        11.8199430950        2.0578375382       18.0675087339
  S         6.3369431234        6.4913779122       17.6823586663
  C         6.2148075101        9.1131754181       18.3187860320
  H        15.0812427205        4.3929882056        6.5051492650
  H        16.2787457173        4.3655505247        5.3177951125
  C        16.5616214712        5.9442207740        6.8195677518
  H         5.6436842117        5.3948016559        2.9995878867
  H         6.2386067465        5.0412961496        1.3669967253
  C         4.9529800766        6.8148244852        1.5599723785
  S        11.6662188341       -2.1710806808        1.1834663206
  N        12.2386439227       -1.8064022327       -0.3093703699
  C        12.1505070466        0.2672639373       -1.6908668675
  H        11.9495153924        2.4116782912       -2.4890737143
  C         5.9201969919        7.1232229014       19.2859139110
  N         5.8979239711        8.4503064079       19.4605959454
  O         6.1296231278       10.3349730661       18.1566165558
  H        16.8202149048        6.8623073751        6.3241065584
  H        15.9844397462        6.1814168704        7.7504743965
  C        17.8233399743        5.1953189834        7.2598338108
  H         5.4314290029        7.1459472063        0.6475485487
  H         3.9979515131        6.3392714417        1.2822827672
  C         4.5628404127        8.0442294722        2.4456803836
  C        12.4676664048       -0.4661410328       -2.8007950776
  S         5.4943107119        6.0952687539       20.6597405030
  C         5.8153134057        9.0796824926       20.7674299847
  H        17.6730402778        4.6537892099        8.1342553875
  H        18.0727350160        4.3011286809        6.6089417634
  C        19.0094087991        6.1427019458        7.2837883335
  H         5.5108154650        8.5860230267        2.5685158892
  H         4.2097792149        7.6300584238        3.3943358337
  C         3.3826704267        8.8577827279        1.8092866763
  H        12.2903817903       -1.5025615375       -2.8283372606
  C        12.9505446530       -0.1359080415       -4.0368967591
  H         5.0346595100        8.6303741685       21.4078526959
  H         5.5516453529       10.1056349789       20.6633805781
  C         7.2117504052        9.0859135127       21.4561971644
  H        19.8782629295        5.6805068555        7.8480099061
  H        18.7233778557        7.0506924228        7.7416540894
  C        19.5636093230        6.4511254735        5.9152493816
  H         2.4605510181        8.2979570634        1.8376553333
  H         3.1943327310        9.6960497132        2.3937162230
  C         3.8226161333        9.5084153306        0.4473056869
  S        13.4992633002        1.4141447047       -4.6754497847
  C        12.9639693170       -1.1804220926       -5.0972133697
  H         7.9348651756        8.6335319364       20.8875947847
  H         7.0987551586        8.5984777980       22.5052486957
  H         7.6234830300       10.0608046720       21.6421870355
  H        20.6455084639        6.5855400960        5.9409091455
  H        19.3095920342        5.6653890862        5.2769276531
  H        19.0873668264        7.3563785614        5.6071672804
  H         3.4927842691       10.5375704464        0.3245068487
  H         4.8726479268        9.6176720722        0.4932816139
  H         3.4739199307        8.9416634499       -0.3923429292
  C        13.7172951047        0.6028517945       -6.2918367346
  N        13.4829574367       -0.7346220674       -6.2354962924
  O        12.4388526452       -2.2507323664       -4.9559137577
  S        14.5147268387        1.3744948336       -7.6715346251
  C        13.4922075964       -1.5209990630       -7.4393539135
  H        13.5801543100       -2.6461788813       -7.2713886848
  H        14.3632924425       -1.3308790265       -8.0707724244
  C        12.1389412064       -1.4094636669       -8.1671078954
  H        11.3742685083       -1.4133646887       -7.4375567238
  H        11.8424971803       -2.2163757762       -8.7917867061
  H        12.0541301498       -0.5456711180       -8.7328988072
