352
 i =      200, time =      100.000, E =       143.5898259254
  H        12.3722915050        6.6048854545       32.2469441102
  C        11.9438639250        5.6918816557       32.5273288794
  H        12.7092316090        4.9956964777       32.5412846605
  C        10.8869298591        5.4555752632       31.3915577867
  C        11.3186117763        5.8576649407       33.9165215948
  C        11.3901285647        5.5777433533       29.9800195671
  H        10.5954891395        4.5068439993       31.5672726213
  H        10.1072374995        6.0593864195       31.5714048011
  H        11.5268929174        6.8300089016       34.3947162518
  H        10.2141226517        5.7365629520       33.7663904077
  H        11.6444660698        4.9697951782       34.5029370703
  C        10.2357320259        5.3508419382       29.0103926843
  H        12.1686552993        4.8985797009       29.7917287663
  H        11.7311026596        6.5176592893       29.7730206935
  C        10.6488054056        5.4872694592       27.5442977376
  H         9.9024925548        4.3916409306       29.1089502165
  H         9.4508476376        5.9736266298       29.2477143036
  C         9.6331261087        4.8651974336       26.5525794761
  H        11.5835622252        5.0262354283       27.2539908061
  H        10.6611202266        6.5003316233       27.2741298832
  C         8.4305336693        5.7553062205       26.3096216757
  H        10.1188767034        4.6077050575       25.6869039670
  H         9.4400862756        3.9498469281       27.0466417689
  C         7.2415532429        5.0469006403       25.5266352654
  H         8.0210280778        6.2134314919       27.1753089162
  H         8.8334798425        6.5474439733       25.7285971439
  C         6.9341519797        3.6262315521       26.1063195680
  C         7.7300177155        4.3535586538       24.2317690163
  C         6.0556203074        5.9854869315       25.3283159173
  C         7.1825986346        2.5965696835       25.2733720318
  C         6.4124347240        3.1611425101       27.3596394464
  C         7.6680891650        3.0252398932       24.0822507597
  C         8.2314888314        5.0704823054       23.1312110406
  H         6.3307488704        6.7032641911       24.6753404549
  H         5.8068782845        6.4244988570       26.2089392681
  C         4.8817271452        5.2215064496       24.6851522990
  S         6.8294268128        1.0241579557       25.9434918124
  C         6.3276263507        1.7515195480       27.3982842145
  H         6.2005820502        4.0424874445       28.0114871910
  C         8.0988479420        2.3649884452       22.9603326725
  H         8.1786312933        6.1713256243       23.1533173200
  C         8.6315925007        4.4010103338       22.0061704631
  H         5.1022435124        4.9179012126       23.7731536606
  H         4.6636837125        4.3689056101       25.1374293232
  C         3.5120879805        6.1090969652       24.5779293078
  C         5.8430978464        1.0924376865       28.6132412706
  C         8.5874486644        3.0570406614       21.8531836429
  H         8.0992264786        1.2851618906       22.9624195261
  C         9.0377304961        4.8258894750       20.8113314413
  H         2.8259181996        5.6580792418       23.8984994832
  H         3.7231148312        7.0960883787       24.2512227157
  C         2.7577244865        6.3011918572       25.9123436107
  C         5.8783903860       -0.2702933982       28.9125712852
  C         5.2803019393        2.0076043879       29.7197148513
  C         9.0012119229        2.4297068451       20.5961142431
  C         9.3136624779        3.7813508150       19.9773012261
  S         9.2216031690        6.3605857201       20.0866546946
  H         1.8806605134        6.8041028286       25.5993669954
  H         3.3608864833        6.9044996750       26.4841801913
  C         2.3160949444        5.0276403680       26.7129820822
  N         6.2181814057       -1.2241447897       27.9627148718
  C         5.6201230673       -0.8251169178       30.1492221058
  C         4.9927662805        1.4544509189       30.9487342728
  H         4.9347761658        3.0610732744       29.4499415100
  C         7.8594416918        1.6606801288       19.8336376235
  C        10.2072372331        1.4672500134       20.7889552455
  C         9.7159015177        4.2297323508       18.6942394880
  C         9.7269641127        5.6770267673       18.6149704512
  H         1.7447600157        4.4637649102       26.1107840148
  H         3.1322463395        4.4691817196       26.9995873209
  C         1.4534063294        5.4186507523       27.9834588076
  S         6.3274294636       -2.7236541062       28.7122342892
  N         5.8442143881       -2.1535967058       30.2043566424
  C         5.1695167103       -0.0345539906       31.2206509673
  H         4.5608318755        2.0858068246       31.6939577512
  H         7.4351158949        1.1450245207       20.5916261300
  H         8.1979360201        0.9938309561       19.1466817445
  C         6.7969989636        2.5063166104       19.2472154916
  H        10.3561007799        0.8677630005       19.9721296790
  H         9.9241863477        0.8026802095       21.5393671557
  C        11.4980510820        2.2307309054       21.2945071018
  H         9.8633108137        3.3349440620       18.0643601837
  C        10.0516178938        6.3992846598       17.4260252922
  H         0.7866240011        4.6150976073       28.1044009920
  H         0.8656611353        6.2596550789       27.7834199973
  C         2.2522683981        5.7511522055       29.2563202016
  C         4.9748333233       -0.6264121961       32.4577381557
  H         7.1550005195        3.1208473993       18.5029081506
  H         6.3719048012        3.0908609691       19.9885939503
  C         5.7291952038        1.5867451372       18.6996133041
  H        11.2316758897        2.7731007500       22.1351130292
  H        11.9570597639        2.8460365578       20.5787631229
  C        12.5781296483        1.2790002251       21.7379657631
  C        10.1004207208        7.8259344830       17.2633393533
  C        10.2128777321        5.5987744314       16.1115623197
  H         2.9798967535        5.0523960605       29.3989266627
  H         2.7379810476        6.6218694166       29.1598850745
  C         1.4152527314        5.7644898048       30.5241982563
  H         4.9831515006       -1.6041228696       32.3704587338
  C         4.6172501900       -0.1102759281       33.6851424506
  H         5.5375599710        0.8408852245       19.3794359513
  H         6.0784810814        1.0819682764       17.8755889380
  C         4.4576637716        2.2918090061       18.2757757659
  H        12.1220077485        0.5817665866       22.4558783980
  H        13.0281567630        0.7181525492       20.9384082461
  C        13.6150684287        2.0461476865       22.4867828011
  N         9.9350711159        8.7517230179       18.3193714566
  C        10.3903497209        8.4737130769       16.0583210626
  C        10.5847241852        6.2092475025       14.9371159824
  H        10.1072635315        4.4749295029       16.1724209803
  H         1.4227532193        6.6261623847       31.1407094955
  H         0.4251354968        5.7367724234       30.0913884816
  H         1.5258790328        4.8126877413       31.0971225962
  S         4.1576628570        1.4915743139       34.1057853200
  C         4.7289074950       -1.1129984877       34.8140736134
  H         4.2513589628        3.1540250728       18.8748674315
  H         4.6134100894        2.7086949608       17.3161682622
  C         3.1706393974        1.4222558990       18.3593551985
  H        13.3317237937        1.9779114239       23.4690073264
  H        13.5676800070        3.0734671323       22.3009641183
  C        15.1405947140        1.7039577411       22.3677395723
  S         9.6643498845       10.2481351956       17.6365131449
  N        10.2260177207        9.7972191455       16.1018957813
  C        10.7444576192        7.7254173655       14.9013800321
  H        10.8134345690        5.6660686512       14.0391526322
  C         4.0368999420        0.8346179108       35.7635858645
  N         4.3418950752       -0.5176737718       35.9324924122
  O         5.1252005271       -2.2790874725       34.7009071021
  H         2.3442095460        2.0051657971       18.0983258668
  H         2.9927785267        1.2504737441       19.3544964563
  C         3.1164211662        0.1619584998       17.4777743333
  H        15.2622827393        0.6839686444       22.5949260190
  H        15.3296238296        1.7701010307       21.3105414214
  C        15.9965418891        2.5071521224       23.2749460129
  C        11.0194546004        8.4306721383       13.7087550952
  S         3.7104654236        1.8744606061       37.2100819822
  C         4.3488473371       -1.2348826268       37.2246449142
  H         2.6022040399        0.3623360419       16.5809879780
  H         4.0480749997       -0.2116749096       17.2330211305
  C         2.2955672118       -0.9273936599       18.2418362711
  H        15.4358968474        2.7501373298       24.1086919436
  H        16.3095965929        3.3394103736       22.7708953497
  C        17.2324665549        1.7537017924       23.6716454211
  H        10.8746137460        9.4307572734       13.9168416641
  C        11.4079002310        8.0878622928       12.4306634503
  H         3.6755885572       -0.7839113592       37.8917432585
  H         3.8898684009       -2.1287915923       37.0204647850
  C         5.7483130708       -1.2928199309       37.8034378113
  H         1.2261869501       -0.6762052421       18.3107224754
  H         2.7726638369       -0.9334596888       19.2625952663
  C         2.3922112064       -2.2701477047       17.5496550776
  H        17.6191893739        2.1130327090       24.5136741889
  H        17.0102663689        0.7965770863       23.8107031482
  C        18.1926651216        1.7946305925       22.4719983400
  S        11.9764973332        6.5175033359       11.9496518855
  C        11.5969315282        9.2099974291       11.4652843387
  H         5.7322506801       -1.7263923665       38.8199886378
  H         6.2635444201       -1.9505975962       37.1480775155
  H         6.1876463335       -0.3611595419       37.7816745381
  H         1.7828910466       -2.9371056935       18.2527498240
  H         3.4350755536       -2.7243600908       17.5656217502
  H         1.9062368116       -2.1957689347       16.5222287531
  H        19.0550250958        1.1693875077       22.6081388271
  H        18.6166382206        2.7960719826       22.3578101529
  H        17.7152182854        1.6060849581       21.4857564503
  C        12.2181268311        7.3276200005       10.3993835030
  N        12.0515247389        8.7035592694       10.2757993722
  O        11.2498126186       10.3900272588       11.6763631393
  S        12.6828135454        6.5242444755        8.8355028094
  C        12.1081486405        9.6102875690        9.1358168928
  H        12.1750889418       10.6070913348        9.5116615043
  H        13.0725974257        9.4020724112        8.7116138725
  C        10.9558646166        9.3341879475        8.1776473285
  H        10.3146839435       10.2998050601        8.2999435909
  H        11.2173839526        9.3658029467        7.0269221270
  H        10.3387168453        8.3789711999        8.4135843881
  H         5.0857787901        2.0688419835       12.4529382712
  C         4.3226886035        2.7447018003       12.7406453059
  H         4.8028596721        3.6732311384       12.7668985624
  C         3.2833994471        2.7574316859       11.5985834166
  C         3.7907039459        2.4418780449       14.1630885158
  C         3.7376192594        2.9962101044       10.1404124417
  H         2.4949394192        3.4415427280       11.8071465401
  H         2.8068293521        1.8077572187       11.6962646605
  H         4.4760306159        2.6035727287       15.0655442606
  H         3.4011000793        1.4117035739       14.2307002490
  H         3.0186350071        3.2396577137       14.3468692305
  C         4.3159416178        1.7340039513        9.4470190124
  H         2.8855152493        3.2637955983        9.6135197504
  H         4.3564874370        3.7803467106        9.9953437488
  C         5.1015350121        1.9299688572        8.1526539118
  H         3.5287018380        1.1334435535        9.1714847234
  H         4.9549623410        1.3123390302       10.1212124861
  C         6.5123182501        2.7620141824        8.3670796704
  H         4.5272201838        2.2973050407        7.3615840246
  H         5.4109609196        0.9675012340        7.8428493772
  C         7.7440987277        1.9982464390        8.8511834032
  H         6.6546863037        3.1620238841        7.4179393716
  H         6.2598875626        3.5797912704        9.0100209609
  C         9.0439380876        2.8337536802        9.1229709635
  H         7.9341402157        1.3719311218        8.0053453948
  H         7.5133088408        1.3986922092        9.6741103208
  C         8.7017889781        4.1611543063        9.8107703373
  C         9.5120431396        3.5839409289        7.8807315743
  C        10.2470376447        2.1018303685        9.8237935077
  C         8.9998480303        5.2469538346        9.0174112151
  C         8.2994123946        4.5177778878       11.1504387059
  C         9.4545455617        4.9301002062        7.8114977591
  C         9.9249810980        2.8448255965        6.7712228390
  H         9.9245504828        1.4625414830       10.5294544757
  H        10.7409015654        1.5663608584        9.1346038400
  C        11.4098374669        2.9867878017       10.2968230436
  S         8.5038712461        6.7402852762        9.7719384499
  C         8.1136128875        5.9506951219       11.2209500398
  H         8.1651823214        3.5821321238       11.7975998321
  C         9.8017171739        5.5889235163        6.6415532390
  H         9.9394048649        1.7619250062        6.7658677367
  C        10.2098684082        3.5219747773        5.5870479426
  H        11.1028451004        3.8940547301       10.6699857565
  H        11.9350180908        3.2219774061        9.4471723811
  C        12.3759321703        2.3727444371       11.3536499595
  C         7.6515686324        6.5941271809       12.4383184239
  C        10.1944190093        4.8811820443        5.4596562187
  H         9.7285561919        6.6273975499        6.6127465811
  C        10.5872720988        3.1324964293        4.3420989006
  H        13.3335392041        2.8170091308       11.2187487693
  H        12.4566389768        1.3358814283       11.2432434060
  C        11.8446920150        2.5415878251       12.7741807103
  C         7.5743265335        7.9840335468       12.7377311531
  C         7.2956309998        5.6743265489       13.6379814595
  C        10.5245168050        5.5875664802        4.1733924136
  C        10.8467421343        4.2323066608        3.4989739687
  S        10.9923230397        1.5974063102        3.6425014973
  H        11.4860164743        3.5502080212       12.9077677285
  H        11.0310494839        1.8560752261       12.8159522607
  C        12.8342532878        2.2252652147       13.8451128355
  N         7.9631248420        8.9898080149       11.8006558079
  C         7.3995900369        8.5798238582       13.9756549994
  C         7.0943840316        6.2828412346       14.8683054246
  H         7.1246424929        4.6188703699       13.5520262046
  C        11.8225804292        6.5112536564        4.4662619769
  C         9.3220859034        6.3845124180        3.5158260322
  C        11.3690001242        3.7737034969        2.2478576422
  C        11.4174312513        2.3223679578        2.1724047412
  H        13.6495830236        2.8636930414       13.7682918799
  H        13.1552092296        1.2467886768       13.7501927138
  C        12.2530449840        2.4119948585       15.2315088666
  S         8.0925157968       10.4868014315       12.5559508132
  N         7.4182132590        9.9466865896       13.9636648363
  C         7.0925209758        7.7864590198       15.1014490490
  H         6.8555241094        5.6875052467       15.7396516427
  H        11.4971459526        7.1865975530        5.2392463841
  H        12.0440576824        7.2248714043        3.6731824289
  C        12.9074441684        5.6335263482        4.9516596932
  H         8.9775011214        7.0018533280        4.2806528231
  H         9.6182977135        7.0535545802        2.7358677847
  C         8.1425519767        5.5580849440        3.0615552070
  H        11.5408102894        4.6473930995        1.5890862532
  C        11.7456981432        1.6594039533        0.9182056950
  H        12.0445777302        3.4211592721       15.3485672375
  H        11.3781965137        1.8361306464       15.2767895511
  C        13.2518307817        2.0160595046       16.3042149521
  C         6.8329898234        8.4097566967       16.3217215358
  H        12.7342611920        5.0509505708        5.7916407646
  H        13.1928013343        4.9507184722        4.2131573786
  C        14.0909037651        6.5708440335        5.4367096967
  H         7.8023068948        5.1241745703        3.9426804017
  H         8.4923921703        4.7662202716        2.4686978090
  C         7.1387919829        6.4945775011        2.3636984607
  C        11.7530389688        0.2219212283        0.7376370409
  C        12.0518167732        2.4780982646       -0.3380809534
  H        14.1968387261        2.5334897485       16.1754722605
  H        13.4634152484        0.9546963288       16.1328270424
  C        12.6652740092        2.1302798744       17.7267633593
  H         6.5594432151        9.3476098890       16.2021909267
  C         6.6183371016        7.9791035934       17.6271903595
  H        13.5925846409        7.2185127722        6.1625764422
  H        14.5472700932        7.1475854566        4.6155374849
  C        15.1083596471        5.7207215684        6.0442450903
  H         6.9201983300        7.3119134824        2.9755547749
  H         7.4844191970        6.8696836066        1.4520459124
  C         5.8516711363        5.8318564255        2.0426352242
  N        11.4053161230       -0.6883906148        1.7565315016
  C        12.1457459560       -0.3946764610       -0.4334001069
  C        12.3880484628        1.8299845213       -1.5452858043
  H        12.0772892184        3.5947749645       -0.4035044250
  H        13.2786544809        1.5946376812       18.4952642461
  H        11.6136563987        1.6707367270       17.6345691119
  H        12.4733472459        3.2199951858       17.9802593722
  S         6.5771431729        6.3243495360       18.1534522735
  C         6.3400041707        9.0509075304       18.6447525020
  H        14.7160253138        5.2309173598        6.8592464166
  H        15.3651148570        4.9873922872        5.3125501285
  C        16.4390173203        6.4121227302        6.4909763961
  H         5.7641508751        4.8995608095        2.5985668256
  H         6.0391938875        5.5253561724        1.0183989879
  C         4.5731556597        6.6646199738        2.1224748693
  S        11.6159469531       -2.2850882142        1.2297563316
  N        12.1372283536       -1.7642880683       -0.3030090899
  C        12.4438227612        0.3535744470       -1.6118750856
  H        12.7658499928        2.3271903551       -2.5028793185
  C         6.0924223685        7.0415102923       19.7017693993
  N         6.0543608026        8.4300871439       19.8156664591
  O         6.2456458681       10.2165989112       18.3561707849
  H        16.7804250509        7.0799072039        5.7707317214
  H        16.1637755922        6.9655458579        7.3259878837
  C        17.4418056176        5.3942066596        6.9052395874
  H         3.8383579741        6.0916133963        1.7417260751
  H         4.3028153137        6.9090356155        3.0467273062
  C         4.6080415640        7.9416226944        1.2189601670
  C        12.7295155552       -0.4059227971       -2.7693538759
  S         5.6026272158        6.0761061612       21.1599277849
  C         5.8838324729        9.2530144008       21.0390228530
  H        17.1574214067        4.9441931541        7.7935921102
  H        17.5969592367        4.6824118171        6.1618365384
  C        18.8198243087        6.0582288608        7.2719338903
  H         4.5820948056        7.6086365890        0.2167200061
  H         5.5244068882        8.4831967327        1.3159116108
  C         3.3818880358        8.7759459916        1.5198165142
  H        12.4956666791       -1.3767572322       -2.4850002401
  C        13.1226300421       -0.2572325321       -4.1157380667
  H         4.9658025097        9.0093028132       21.4183295851
  H         5.8202967228       10.2502944007       20.7896410521
  C         6.9963447314        8.9721601510       22.0529496012
  H        19.0826294638        5.5820922767        8.0990796893
  H        18.7954210696        6.9898064369        7.5200482121
  C        19.8760773011        5.9803774484        6.1144449111
  H         2.5131376020        8.3655600368        1.2308292637
  H         3.3015942215        8.9032857495        2.5269139497
  C         3.5291749013       10.1319644263        0.8138963832
  S        13.5569112173        1.2406381448       -4.8063881355
  C        13.3156407812       -1.5050207456       -4.8801726030
  H         7.3157332189        9.9624512462       22.3699512615
  H         7.8041416963        8.5277082713       21.5389852830
  H         6.7222595576        8.3770946109       22.8996247259
  H        20.7514467790        6.5465505364        6.4901947497
  H        20.1896120879        4.9372861636        6.0207892278
  H        19.5517509737        6.2338752980        5.1091952831
  H         2.6491963658       10.7498742302        1.2013808015
  H         4.4782565620       10.6470123362        1.1550440722
  H         3.4781765589        9.9994740225       -0.3113322444
  C        13.9072687727        0.1609653991       -6.2545119732
  N        13.8013184482       -1.1763882472       -6.0745004439
  O        12.9752259542       -2.6624689555       -4.5907463927
  S        14.4378022763        0.8140558187       -7.8801189325
  C        13.8389057805       -2.2094200874       -7.2009947922
  H        14.0789100220       -3.1292190704       -6.7997263334
  H        14.5933516899       -1.9617642771       -7.9149971171
  C        12.5173816123       -2.1495315642       -7.9409466830
  H        11.7375631192       -2.2966259122       -7.1514016277
  H        12.5656793087       -2.9884133849       -8.6782891931
  H        12.3671378114       -1.1791949305       -8.4892010294
