352
 i =    13800, time =     6900.000, E =       120.1355746879
  H        10.1172968932        4.4433010793       33.2431244099
  C        10.0421658656        5.5052384935       32.9684577519
  H         9.2969965606        5.9389772282       33.6130447868
  C         9.4074363108        5.7698272608       31.5627646127
  C        11.3614832931        6.2393831009       33.2030380712
  C        10.1900009043        5.3729142053       30.3537395509
  H         8.3904337320        5.2505931652       31.5641176763
  H         9.1758960991        6.7865639424       31.5712499555
  H        11.5030763621        6.4157183886       34.3037249921
  H        12.1194752666        5.6289388032       32.6661287456
  H        11.4621791544        7.2457131851       32.7009025400
  C         9.9630899593        6.3987226354       29.2510385478
  H        10.0900531560        4.3529098111       30.0436728907
  H        11.2619531451        5.4838885965       30.5790976124
  C        10.5696890287        5.8970851166       27.9226675151
  H         8.8672093782        6.5954330346       29.1430051681
  H        10.4053869223        7.1993947756       29.6614479512
  C         9.5192650376        5.1562649637       27.0764619677
  H        11.4122376304        5.2816061208       28.2081091464
  H        10.9486395034        6.6615594702       27.3016247845
  C         8.4722059185        5.9421089999       26.3842834998
  H        10.1342700414        4.6255385484       26.3013961620
  H         9.0661151708        4.2995015981       27.6424205800
  C         7.4207305771        5.2518227054       25.5565758770
  H         8.0243776258        6.4967495252       27.1597337479
  H         8.8853851703        6.7371980574       25.8278954089
  C         7.0670401930        3.9241228575       26.2596652285
  C         7.9124321562        4.5915908632       24.3308881424
  C         6.0905169916        6.0786817227       25.3617423021
  C         7.3560565434        2.8142098083       25.4197047312
  C         6.4951808579        3.5613453609       27.4424762782
  C         7.8388947858        3.2173462985       24.2175858101
  C         8.4850446179        5.2438401905       23.1636731943
  H         6.3073120332        6.8549653740       24.6093263167
  H         5.7218216717        6.5909163468       26.2852400909
  C         4.9790354957        5.3313708661       24.6807485291
  S         6.8102759390        1.3866227145       26.1086796397
  C         6.3774720548        2.2099325109       27.5513182469
  H         6.1070399826        4.2536971232       28.1774450743
  C         8.0976537806        2.5816625433       23.0851355827
  H         8.4894668835        6.3322392285       23.2316106768
  C         8.7255522851        4.5162432264       22.0138363577
  H         5.4327664445        4.9352088624       23.7651556553
  H         4.7171327705        4.3856029185       25.1121508778
  C         3.8435871328        6.3146311241       24.3454131912
  C         5.9013979511        1.5381245911       28.8145437058
  C         8.5917392267        3.1730860102       21.9249769376
  H         7.8971569382        1.5315481472       23.0564959566
  C         9.0225265139        4.9171737152       20.7290822647
  H         3.0951602941        5.8166720932       23.6413513966
  H         4.1757764549        7.1525426121       23.7664985829
  C         3.0164686292        6.8067352540       25.5787885445
  C         5.8934505918        0.1387656905       29.0748362048
  C         5.3549013627        2.2993591988       29.9593117705
  C         8.9400993801        2.4933836362       20.6099394014
  C         9.1755069011        3.7872463391       19.8739380381
  S         9.2731582092        6.4704661331       19.9465706022
  H         2.0424565363        6.9198139757       25.1435666171
  H         3.3582358481        7.8597539607       25.8141165342
  C         2.8741449213        5.6505381072       26.7063082042
  N         6.1576936659       -0.8228402326       28.0322040482
  C         5.6738906694       -0.4536948548       30.3357167307
  C         5.0219680275        1.6816598117       31.1878711047
  H         5.0342486171        3.2894499299       29.8544852423
  C         7.7650853113        1.6372305063       20.0501851121
  C        10.2039386268        1.6854634565       20.7040494359
  C         9.4280742692        4.2567091806       18.5829027524
  C         9.4495515179        5.6404354557       18.4398322172
  H         2.4695169754        4.8175984829       26.1686481624
  H         3.9157817027        5.3134184065       27.0491558000
  C         1.9306596717        6.1098063345       27.7357995998
  S         6.0456594905       -2.2958528495       28.6897125944
  N         5.6760941901       -1.8360929887       30.1884557065
  C         5.2016745216        0.2100558422       31.4786998747
  H         4.4224156735        2.3353181977       31.8558165714
  H         7.5669505868        0.7563642237       20.7315710879
  H         8.0988363781        1.2322423898       19.0788608545
  C         6.4853091989        2.4579450274       19.8268468834
  H        10.5126322388        1.2866282000       19.7038464089
  H         9.9890302835        0.7433214133       21.2519922260
  C        11.3753718882        2.4842185462       21.1975067362
  H         9.5552172098        3.6505137913       17.6609435614
  C         9.7685454993        6.4083433730       17.2221335982
  H         0.9553445410        6.3343712211       27.3292015883
  H         2.3140320284        7.0685689556       28.1886674844
  C         1.6647185041        4.9655626045       28.7061651881
  C         4.9059722964       -0.4637790843       32.6778896998
  H         6.6630721256        3.4001150955       19.2244239192
  H         6.1193137118        2.8508814930       20.7862393495
  C         5.3936469915        1.6197300980       19.1112411689
  H        11.0963961540        2.7999844264       22.2506983931
  H        11.4057795181        3.4097882398       20.6125521958
  C        12.6665655400        1.6281422585       21.0682510835
  C         9.7845692791        7.8593765642       17.0317976242
  C         9.8607428502        5.7430642551       15.9041396835
  H         0.8664195631        4.3024371736       28.3252745016
  H         2.5582245565        4.3849041603       28.9683456295
  C         1.0490038482        5.5617212802       30.0965752452
  H         5.2221055962       -1.4847609014       32.6071566374
  C         4.5715374757       -0.0565075229       33.9460444358
  H         4.9468817727        0.8346690117       19.7982921550
  H         6.0163843053        1.1094350541       18.3071255499
  C         4.3067715790        2.5756958936       18.6360225645
  H        12.6349328486        0.7497074036       21.7727410159
  H        12.6879310782        1.0853049541       20.0933723068
  C        13.9005848863        2.4331094938       21.3537528566
  N         9.6191317838        8.8212246167       18.0845572404
  C        10.1380074749        8.4941018258       15.8423590195
  C        10.2355522561        6.3560625848       14.7364439719
  H         9.6398462032        4.7064585951       15.9132539672
  H         1.6622813095        6.2813096048       30.6820124114
  H         0.0416696138        5.9803184771       29.9079322531
  H         0.8113798148        4.6999867841       30.5907254375
  S         4.2592042958        1.5307901779       34.4789359033
  C         4.6385269537       -1.0987329078       35.0514329969
  H         4.1777692135        3.3905723898       19.2385788921
  H         4.5901492894        3.0045114686       17.6695824586
  C         2.8694414921        2.0039761963       18.5631650386
  H        13.6353262253        3.2847358704       20.7906383321
  H        14.7730495041        1.8706433176       20.8937988479
  C        13.9323686767        2.7103002055       22.8598236513
  S         9.7642464894       10.3435323248       17.4272345247
  N        10.2229993369        9.8746532488       15.9272275633
  C        10.3878684561        7.7762077660       14.6471369678
  H        10.2728734981        5.7252264100       13.8489869331
  C         4.1264344851        0.8092312598       36.0895493376
  N         4.1825557339       -0.5316338495       36.1771227839
  O         4.9011538171       -2.2569134942       34.8288302748
  H         2.2776925182        2.8624184471       18.0147066754
  H         2.3679358994        1.9568591890       19.5341913405
  C         2.7520550644        0.7113419970       17.7014993290
  H        13.0080386687        3.2341274208       23.0467424390
  H        13.7728401387        1.7257979433       23.4343953493
  C        15.2657026814        3.4259002123       23.3421888158
  C        10.6136058349        8.5817597383       13.4461671288
  S         3.8802756877        1.7113687967       37.5116052872
  C         4.1819774710       -1.3477144323       37.3869090137
  H         1.7552722745        0.8589747334       17.2213691537
  H         3.5496726782        0.6632059346       16.9617293129
  C         2.6122384364       -0.5014644685       18.5889871824
  H        15.0507868965        3.9854035838       24.3105359726
  H        15.6045425137        4.1478327402       22.5986928946
  C        16.4550907912        2.4558990936       23.5566737010
  H        10.5234722196        9.6260584081       13.5428988901
  C        11.1519165210        8.2737686530       12.1835003303
  H         3.1842361210       -1.0007714887       37.8597518035
  H         4.0611233068       -2.3810069325       37.1575720366
  C         5.4037819723       -1.0845447706       38.2999950881
  H         1.7067496180       -0.3741451225       19.1384883276
  H         3.4966127155       -0.6511037762       19.2149316040
  C         2.5599109755       -1.8129295943       17.7219628676
  H        17.1073712378        2.6929715448       24.3767801714
  H        16.0458305213        1.4418918688       23.7735904324
  C        17.4271612292        2.4471399721       22.3313729389
  S        11.7648464978        6.7010283357       11.5122673287
  C        11.2622005538        9.4320976409       11.2413876825
  H         5.5764102342       -1.6546342075       39.2502165508
  H         6.2998333009       -1.0748627587       37.7516971077
  H         5.4215225355       -0.0408414908       38.6286372220
  H         2.2699074140       -2.7600868369       18.2145721961
  H         3.6033585227       -2.0473884008       17.3774098232
  H         2.0563972834       -1.6106584151       16.7822672394
  H        17.8414497025        3.3712494924       22.0461138182
  H        16.9108847807        1.8817561751       21.4772358465
  H        18.3551155806        1.9830989522       22.5256352747
  C        11.8289386414        7.6095219084       10.0005840174
  N        11.6882804797        8.9622744169       10.0526086262
  O        10.7121987327       10.5576468164       11.5421308992
  S        12.6309635865        7.0554076358        8.5087650206
  C        11.8049305141        9.8408173886        8.8762169358
  H        12.0139456527       10.9184998232        9.1730500155
  H        12.7418744805        9.6393296689        8.3382951214
  C        10.5751129534        9.6927888662        7.8823901105
  H         9.9078268393       10.5832086461        8.0719629103
  H        10.9118322314        9.6326002427        6.8497465020
  H         9.9620869949        8.7613061429        8.1992534712
  H         4.7505727796        1.2913523281       12.7697152213
  C         4.0376920896        2.0801288768       12.8300491378
  H         4.5301208278        2.9957529590       12.9780558911
  C         3.0550813292        2.2753019558       11.6978982642
  C         3.2609237486        1.9703806858       14.1016308982
  C         3.6968151137        2.5701845917       10.3619347010
  H         2.4854706963        3.1747813315       11.9263355864
  H         2.4480044013        1.3262340944       11.6360214467
  H         3.1550121937        0.9559043729       14.3319247764
  H         2.2225086863        2.4180838228       14.1367090834
  H         3.7956098629        2.2145827952       14.9728613494
  C         4.5412654801        1.3341195053        9.8708985711
  H         2.8680224980        2.7719166285        9.7326656678
  H         4.2813485225        3.4424296953       10.4849275195
  C         5.0821863170        1.4575967068        8.4658051016
  H         3.8574164894        0.4938864739        9.7032722761
  H         5.2096736357        1.0155382737       10.6196065481
  C         6.4203630652        2.2575443813        8.4600423730
  H         4.1920673156        1.8890721385        7.8787226883
  H         5.1774645164        0.4927636586        7.9679195078
  C         7.6469557193        1.6875006877        9.0864673315
  H         6.5812351721        2.4486624733        7.4095824936
  H         6.2965463147        3.2044189670        8.9342860720
  C         8.8917240586        2.6147969992        9.3302237538
  H         7.9420133613        0.8164159423        8.4159472701
  H         7.4660051257        1.2156916928       10.0505669804
  C         8.4831274809        3.9831690446       10.0038637019
  C         9.3541203014        3.3222103096        8.0904186332
  C         9.9961097558        1.9489542144       10.1616422494
  C         8.7016269166        5.0769154481        9.1394301264
  C         7.8784030828        4.3428345646       11.2018758638
  C         9.3155089733        4.6775344133        7.9450176245
  C         9.7216211636        2.6654318760        6.8903226140
  H         9.5142220913        1.3653466263       10.8895582054
  H        10.4197447711        1.1485481461        9.5173345876
  C        11.0635226147        2.8709101556       10.7813716307
  S         8.2853657055        6.5931500782        9.9128091153
  C         7.8590722617        5.7053891277       11.3700746920
  H         7.5621385515        3.5870157959       11.8848009479
  C         9.8412082666        5.2572551710        6.8681336933
  H         9.7483862054        1.6143029009        6.8579517482
  C        10.2166261901        3.3235035678        5.7629189553
  H        10.5349803782        3.6335955290       11.3387355121
  H        11.6517216696        3.3457894302        9.9720385993
  C        11.9976434588        2.1597159568       11.7976296525
  C         7.3546827438        6.3393822091       12.6158102624
  C        10.3017897717        4.6622990893        5.6940232144
  H         9.7692454335        6.3067817812        6.9251497491
  C        10.6394416787        2.8716251572        4.5175017738
  H        12.7235217975        2.8699171998       12.0205544011
  H        12.5430082991        1.4403619123       11.2856807391
  C        11.1596318404        1.7763694177       13.0168162461
  C         7.4141631979        7.6861748218       12.8269303159
  C         6.8732406707        5.5354558961       13.7263927034
  C        10.6986029374        5.3327785393        4.3470537302
  C        10.9506998982        3.9887190831        3.7264869767
  S        10.7789520519        1.2717063151        3.8354990924
  H        10.0624529430        1.9660653253       12.8137254967
  H        11.3816942546        0.7194528886       13.1035206711
  C        11.6566364245        2.4391470833       14.3118094231
  N         7.7392921643        8.6952292784       11.8126430761
  C         7.1677148491        8.2432058589       14.0483911116
  C         6.6869584085        6.1230703816       14.9702603103
  H         6.7945369559        4.5139190095       13.6477567691
  C        11.9183947133        6.2061052913        4.4791015938
  C         9.6250080612        6.2048187886        3.6175814782
  C        11.3987787728        3.4631925946        2.4315232350
  C        11.3549424211        2.0940440710        2.3731518051
  H        10.8307018377        2.7600728940       14.8772942674
  H        12.1337500473        3.4110596590       14.0525348392
  C        12.6578005470        1.5503366020       15.0081176324
  S         7.8578425316       10.0834304724       12.5985103348
  N         7.3605153077        9.6207110766       14.0693447071
  C         6.8483195919        7.5622152867       15.2122780165
  H         6.4187135453        5.5309655225       15.8473828779
  H        11.6391462837        7.0220277898        5.1424678200
  H        12.1638777768        6.6294170775        3.4837894737
  C        13.1055815525        5.5423287733        5.1114113694
  H         9.5412410468        7.1195969497        4.2223244412
  H        10.0496479286        6.5440925891        2.7053149763
  C         8.2524682148        5.5806111877        3.4684140061
  H        11.6355607491        4.1451432600        1.7151588997
  C        11.6216021352        1.3455241499        1.0457255793
  H        12.3284649500        0.5240803037       15.3139803584
  H        13.4868171425        1.2455671926       14.4019076721
  C        13.2211089716        2.2874253603       16.2956705028
  C         6.6744441474        8.2214253388       16.4515432328
  H        12.9340222344        5.3536294147        6.1624542088
  H        13.2967830940        4.5383187762        4.7067643333
  C        14.3463596837        6.5238047361        4.9676913290
  H         7.9708178540        5.1503301525        4.3825372150
  H         8.3392088344        4.7853110034        2.7381929489
  C         7.1342627146        6.5352906901        3.1628633950
  C        11.5035382870       -0.0252521276        0.7531643983
  C        11.9403443120        2.2550191283       -0.1497748431
  H        13.9431256114        3.0143792544       15.9923289070
  H        13.8658190692        1.5280134420       16.8297747399
  C        12.2832517524        2.8381920216       17.2713136353
  H         7.0241487290        9.2268676152       16.5015236267
  C         6.3082396963        7.7659680663       17.7180794554
  H        14.2346553284        7.2879562156        5.8144359447
  H        14.4246191816        7.0376705985        4.0215456927
  C        15.5888528102        5.8707709143        5.3541169804
  H         6.9898716170        7.1331712359        4.0846925814
  H         7.4316285392        7.1780618911        2.3076377295
  C         5.7807514248        5.8644392022        2.7756421577
  N        11.1928198485       -1.0078277620        1.7149616575
  C        11.7709582437       -0.5281856939       -0.4876589563
  C        12.0580229516        1.7330920972       -1.4071669019
  H        12.1113970293        3.2673406384       -0.0023821149
  H        12.7796045761        3.3768008632       18.0289930465
  H        11.5744602937        2.0985075222       17.7347581144
  H        11.7262520527        3.6232897619       16.7916329711
  S         5.9433187025        6.2478067458       18.2001799321
  C         6.2735069804        8.7700996901       18.8292435980
  H        15.4423179798        4.8570006797        5.0414887948
  H        16.4473670535        6.2331646896        4.8635210419
  C        15.7424571868        5.7841755202        6.8943660850
  H         5.2227745435        5.4565531431        3.5966004325
  H         6.0684897679        5.1118469609        2.1051039515
  C         4.9651433952        6.9234952079        1.9649407455
  S        11.2167427334       -2.4936343023        1.0403120240
  N        11.7272445249       -1.9099455407       -0.4450185453
  C        12.1776598675        0.2634759231       -1.6133983976
  H        12.1466426590        2.3963370085       -2.2534015536
  C         5.8301139041        6.7934587057       19.8154197812
  N         5.8900082857        8.1423050748       19.9905389593
  O         6.4977248797        9.9515956729       18.5951995460
  H        15.7831394114        6.7927566513        7.3468805761
  H        14.9258181987        5.3091825828        7.4292922946
  C        17.0061943052        4.9676745167        7.3140243220
  H         5.6286673786        7.4916211220        1.2981453311
  H         4.2823916853        6.3101913305        1.3872881061
  C         4.2843191464        8.0538209503        2.6907856483
  C        12.5781867884       -0.3744005103       -2.8154458662
  S         5.4310406154        5.7896467484       21.2863611489
  C         5.8514563301        8.9660437809       21.2010560409
  H        16.7595085565        4.3747260216        8.1300380482
  H        17.1547496101        4.3023111377        6.5019575476
  C        18.2459647520        5.8703667771        7.7184424749
  H         4.9542338851        8.7712531945        3.1822287144
  H         3.7040093703        7.6775937660        3.4682183142
  C         3.4300739987        8.8749221733        1.6908838604
  H        12.1393577132       -1.4128839087       -2.9333850590
  C        13.2341372991        0.0608804939       -3.9062669816
  H         5.2999161771        8.5732213526       21.9857725849
  H         5.2378206633        9.7991671982       20.8041787987
  C         7.1496412462        9.3992722355       21.8264531365
  H        18.6506686303        5.3863351011        8.5747662212
  H        17.9908855847        7.0037503233        7.7707952695
  C        19.1105132756        5.6871456615        6.4649837394
  H         2.8782330709        8.1945655896        0.9822415846
  H         2.6880193270        9.4457701362        2.2342691956
  C         4.3017550791        9.8801875995        0.9478185731
  S        13.9195802665        1.6749114023       -4.1783666390
  C        13.4394717632       -0.8434785349       -5.1196687289
  H         7.2221886151       10.4369152194       21.7780866140
  H         8.0330390070        8.9677282321       21.3326586869
  H         7.1699041665        9.2446878310       22.9014792090
  H        19.8046759512        6.4559467927        6.6510591278
  H        19.6649729007        4.7223619358        6.3549293904
  H        18.4769704566        5.7670756961        5.5390017459
  H         3.9244988462       10.1744288920       -0.0629810341
  H         4.1647537369       10.8911035123        1.3907374027
  H         5.3616619596        9.6309550057        0.9565047253
  C        14.5145771207        1.0751014389       -5.7143040852
  N        14.2104204635       -0.2229933994       -5.9827544536
  O        12.8035353559       -1.8624105465       -5.3784441603
  S        14.9942047794        2.0979584157       -6.9846755551
  C        14.5176695980       -0.9475930115       -7.2444787399
  H        14.7366166766       -2.0725117592       -7.0540521052
  H        15.4743911087       -0.5459354750       -7.6096705580
  C        13.4732372051       -0.7628753350       -8.3634797949
  H        13.3499969759        0.1967856566       -8.8499532747
  H        12.4564740763       -0.9554400306       -7.9826329662
  H        13.6357428217       -1.5086855870       -9.1475686403
