352
 i =    10800, time =     5400.000, E =       137.2876617532
  H         9.7029110844        4.8873339020       31.9558352826
  C        10.2086490558        5.7586461442       32.1329474989
  H         9.4871714309        6.5857316093       32.0322165268
  C        11.3374226396        5.9088739290       31.2336622341
  C        10.9006274487        5.6683549495       33.5477587434
  C        11.1247126670        5.2927986427       29.8407226672
  H        11.5244038247        6.9589148987       31.2332572364
  H        12.2308121281        5.4545416262       31.5251457804
  H        10.2611013942        6.0015675721       34.3470691649
  H        11.1656036150        4.6165522729       33.7735032693
  H        11.7236862553        6.3192785999       33.6444194267
  C        10.9589632843        6.3552175346       28.7670053214
  H        10.2409034223        4.5958810672       29.6681480236
  H        12.0731621827        4.7360743752       29.6846496264
  C        11.0641512596        5.7983778668       27.2163145195
  H        10.3343990314        7.2124374787       29.0143692448
  H        11.8667211909        6.8805538994       28.7021501230
  C         9.7426767314        5.1654606281       26.7423486748
  H        11.8404433988        5.0532353906       26.9510084671
  H        11.4283045497        6.5489909129       26.4837078598
  C         8.6134249849        6.0729912763       26.3203021796
  H         9.8833447581        4.4434022897       25.9430062189
  H         9.3556841389        4.7171367612       27.5921752448
  C         7.4453472907        5.2328392170       25.5654968943
  H         8.2743349777        6.5704359069       27.2223783125
  H         8.9897270428        6.8730009930       25.7407746521
  C         7.1462178400        3.8919037651       26.1802596467
  C         7.9067173244        4.6131227267       24.3066958493
  C         6.2228646882        6.2042717921       25.3813138427
  C         7.3185938643        2.8140144934       25.3375604229
  C         6.6247796748        3.3929013448       27.4691218163
  C         7.8149794214        3.2701621867       24.1368915861
  C         8.3471313475        5.2757791768       23.1011441032
  H         6.4371665434        7.1230489366       24.8077542247
  H         5.9096895660        6.4872573317       26.3540966849
  C         4.9898270971        5.4388846623       24.7930839271
  S         6.8647847259        1.2536402213       25.9791940584
  C         6.3587568338        2.0903391755       27.4516180625
  H         6.5815151189        4.0955710104       28.2623327908
  C         8.2939253272        2.7335478870       22.9829735067
  H         8.3590909698        6.3472183825       23.1699544633
  C         8.6739354445        4.6852007240       21.9013086615
  H         5.2641347618        5.1113054138       23.8306989407
  H         4.6340131195        4.6017246675       25.4328547281
  C         3.8732333893        6.3013365803       24.4352084799
  C         5.8759271412        1.3045565630       28.7135055828
  C         8.6781902927        3.3625645214       21.8029822481
  H         8.2806425047        1.6452325298       23.1386192751
  C         8.9973347589        5.1206169852       20.6081653716
  H         3.2314834581        5.8470885656       23.6349415362
  H         4.3068871162        7.1676714104       23.9787597430
  C         2.9223324252        6.9016758823       25.5577635910
  C         5.8901007513       -0.0938167393       28.9314871426
  C         5.4581252761        2.1816990657       29.8553473329
  C         8.9759553154        2.7418258410       20.3981968530
  C         9.3045467540        4.0695375104       19.8266144046
  S         9.2409390251        6.7383153506       19.8601061728
  H         1.9954362157        7.5234505060       25.2342233374
  H         3.5671690271        7.3514039027       26.3031897912
  C         2.2734606693        5.7138435270       26.4044794041
  N         6.1106196261       -1.1502031398       28.0850603197
  C         5.3381181173       -0.6318072600       30.1538028176
  C         5.0355728643        1.6629732252       31.0776317819
  H         5.4810706488        3.2416774554       29.6734981289
  C         7.7708828848        1.9694222648       19.7381348023
  C        10.2209583150        1.6727560041       20.4702173416
  C         9.6933478049        4.5015152616       18.5532149893
  C         9.5904626821        5.8667846987       18.3206344162
  H         1.5920623305        5.0465589980       25.8518179637
  H         3.1163169812        5.1147182072       26.7280756236
  C         1.5053019172        6.1728233140       27.7753834245
  S         5.9052465695       -2.6091113932       28.7593727082
  N         5.4333254401       -2.0307359050       30.2313659499
  C         4.9223907648        0.2010251140       31.2388353960
  H         4.7567919662        2.3789006595       31.8543832799
  H         7.3361235575        1.1081802598       20.3544011178
  H         8.1191899559        1.4298045855       18.8712921139
  C         6.6246996488        2.8816164791       19.2693892922
  H        10.5584614891        1.2315097187       19.5656084132
  H         9.8949840078        0.8564937799       21.1392273367
  C        11.4850981395        2.2972926775       21.1140879532
  H         9.9251012751        3.7023962622       17.8474265896
  C         9.8532046574        6.6072130214       17.0539917212
  H         0.5469208055        6.6166992886       27.5576218036
  H         2.1769348073        7.0536226583       28.1328294379
  C         1.5648037828        5.2002929907       28.9553156779
  C         4.5044221691       -0.5348348459       32.4622997151
  H         7.0615880248        3.4384798249       18.4206781346
  H         6.1842550983        3.4447458402       20.1096989440
  C         5.5173155170        2.1082411619       18.4687058708
  H        11.1701033752        2.8679389371       21.9894945417
  H        11.9130657309        3.0691603568       20.4802370916
  C        12.4127459338        1.1952224929       21.7393986535
  C         9.8585212619        8.0131603456       16.8831116942
  C        10.2061790148        5.8252181646       15.9152648313
  H         0.7835578742        4.5359441137       28.5391864680
  H         2.5694232385        4.7405757093       28.9254381968
  C         1.3280410037        6.0604064399       30.2365981775
  H         4.7112829691       -1.6023774094       32.4368261442
  C         4.2323604903       -0.0884730270       33.7310531209
  H         4.8815265998        1.7829833026       19.3119595504
  H         5.9188034843        1.3055316521       17.8352387765
  C         4.6025739003        2.9243715844       17.5816545043
  H        12.2877748244        0.9059066960       22.7874897887
  H        12.2268925139        0.3030128992       21.1974824300
  C        13.8581882348        1.7058716819       21.6581360571
  N         9.6039865011        8.9649456316       17.8631583480
  C        10.2447842128        8.6426352501       15.7246078748
  C        10.5866777874        6.5013314940       14.7450132609
  H        10.0722086634        4.8169054999       15.8450378687
  H         0.5419996140        5.6064150153       30.9331118143
  H         2.2865454748        6.2194722713       30.7725766881
  H         0.8099428243        6.9603577310       29.9892249741
  S         3.8830927117        1.5503600957       34.1856434650
  C         4.2583212410       -1.0654822777       34.8300612112
  H         4.5105602682        4.0120771711       17.9171359259
  H         4.9836530198        2.8586614759       16.6387964793
  C         3.1708496098        2.3244401272       17.6012754107
  H        13.8623810559        2.6894857809       21.1490350560
  H        14.5915396611        0.9168073242       21.3051333603
  C        14.3808018910        2.0115139333       23.0780490178
  S         9.8291258321       10.4548317384       17.1670354769
  N        10.1969961290        9.9706838954       15.6767619871
  C        10.6755527396        7.9175530578       14.6116490613
  H        10.7811071879        5.8348934232       13.9303769832
  C         3.7382615613        0.8705163795       35.8024394270
  N         4.0948983968       -0.4235900449       35.9917034927
  O         4.4945747185       -2.2343986339       34.6001341923
  H         2.5085132026        2.8526992448       16.8975305374
  H         2.7410972156        2.4436018152       18.6423673758
  C         3.2019484991        0.8896931390       17.1376566976
  H        13.6314126479        2.6025631820       23.3787509720
  H        14.3858072984        1.1004659584       23.6756235525
  C        15.7670514220        2.6960289425       23.1290939842
  C        11.0489338380        8.6871597132       13.4277894548
  S         3.0690742011        1.8519432159       37.2116262369
  C         4.1612629067       -1.1188781972       37.3123755403
  H         2.3692143461        0.8286186681       16.5173886258
  H         4.0157048045        0.8407072794       16.4232735319
  C         2.9371208903       -0.2767340910       18.1807926800
  H        15.7331523922        3.2501239962       24.0311671716
  H        16.0032542826        3.4584551281       22.4018087218
  C        16.7787544145        1.6641466833       23.3138994013
  H        10.8680808275        9.6898557068       13.3877698644
  C        11.4919634264        8.3005740627       12.2060856940
  H         3.7779395756       -0.5654371791       38.1235690269
  H         3.5142014521       -2.0210010740       37.2275429471
  C         5.5318773593       -1.5808787612       37.7591096273
  H         2.4073355543        0.1429378272       19.0869172342
  H         3.8784228723       -0.7658113629       18.5258667557
  C         2.1625857931       -1.5057855496       17.7456701865
  H        16.8949908044        1.2526746820       24.3370015236
  H        16.5017794940        0.9519614300       22.5938061291
  C        18.0611013379        2.3759070930       22.7524380990
  S        11.7785321363        6.6890993434       11.7327435467
  C        11.6302655097        9.3281839101       11.0822618468
  H         5.4891914209       -2.3689742129       38.5800803636
  H         6.1663931442       -1.7772792410       36.8938349230
  H         5.9200325265       -0.7351779171       38.3030367583
  H         2.1575206727       -2.2902698434       18.5646275387
  H         2.5861496102       -1.9112161020       16.7243435715
  H         1.1209816458       -1.2597667343       17.4286446191
  H        18.3149402964        3.2469779749       23.3138530078
  H        17.9210501623        2.7498584663       21.7076698000
  H        18.8944540971        1.6751911008       22.6478972650
  C        12.1115850037        7.3105488500       10.1106939995
  N        12.0809039398        8.6411124684       10.0086807452
  O        11.2897301930       10.4944652712       11.0329770176
  S        12.7223187389        6.3113301183        8.7678405643
  C        12.3407558587        9.3829968066        8.7932199820
  H        12.6853196994       10.4169060369        9.0889099067
  H        13.0993780129        8.9566221731        8.1553737441
  C        10.9591594650        9.6089522597        7.9928074026
  H        10.0440608697        9.3745925983        8.6213699796
  H        10.7363680000       10.6459060938        7.7679415054
  H        10.9679402449        9.0587901221        7.0485825316
  H         4.1093692135        1.2891131313       12.1746401178
  C         3.8277368894        2.3469740322       12.4304675433
  H         4.7205662680        2.9473754830       12.5668826251
  C         2.9548506042        2.8745932825       11.2561241994
  C         2.9263147346        2.2147938681       13.6405173067
  C         3.6894067794        3.0633638633        9.9905975603
  H         2.4840654282        3.8141570780       11.6369042959
  H         2.1266058007        2.2335224584       10.9947374195
  H         1.8650458216        2.0346000931       13.3660221188
  H         2.8285985742        3.1715886458       14.2289680557
  H         3.1886641624        1.4018904794       14.1753933457
  C         4.2942984016        1.7348194869        9.6127112266
  H         3.0896724508        3.5126189983        9.2196559415
  H         4.4191180045        3.8015121617       10.2673978811
  C         5.0395349946        1.7446789286        8.2469180954
  H         3.5163441153        0.9342096285        9.7356646246
  H         5.0919758064        1.5920106924       10.3608109341
  C         6.3248109380        2.6402384693        8.3136039766
  H         4.2969521273        2.1362493091        7.5504327374
  H         5.3155659414        0.7584379588        8.0122576429
  C         7.5671103304        1.9312956005        8.9405771829
  H         6.4397424454        2.9654442108        7.2526526242
  H         6.1711074885        3.5556544190        8.8959335825
  C         8.8157480058        2.8886835380        9.1203136538
  H         7.8186313520        1.0166858886        8.3383757768
  H         7.4330090106        1.5479355776        9.9755021797
  C         8.4888880773        4.1596998982        9.9198737932
  C         9.1889070415        3.6058801175        7.8917445584
  C         9.9967198863        2.1724742019        9.8917785269
  C         8.5611206218        5.2910555129        9.1278711422
  C         7.9304836488        4.4842337045       11.1591232143
  C         9.2087773451        4.9668032181        7.9002854271
  C         9.7541595668        3.1161255236        6.7061130688
  H         9.6377982625        1.8287867703       10.8474971318
  H        10.2909341307        1.2692203910        9.3035190224
  C        11.3437461275        3.0127179012       10.0784918381
  S         8.1852136054        6.7756473188        9.8773107473
  C         7.6963565908        5.8435571707       11.2553417950
  H         7.7190530800        3.6477496271       11.8453905220
  C         9.6510196519        5.6963364428        6.8109365712
  H         9.8410070550        2.0678892264        6.5217664425
  C        10.1867142009        3.8081555385        5.6391281466
  H        11.1547466384        4.0325455166       10.4318534857
  H        11.7162542533        3.1839404899        9.0307650324
  C        12.2774611444        2.3062387583       10.9475778703
  C         7.2691352842        6.5725891426       12.5370158324
  C        10.1296609009        5.1685182730        5.5908852914
  H         9.5400630069        6.7722484749        6.8696985376
  C        10.7114072799        3.4870185781        4.4186000284
  H        13.1111883233        3.0457237481       10.9879020554
  H        12.6340381268        1.3393521012       10.5356112367
  C        11.8579008854        2.1358330349       12.4429949639
  C         7.5112333925        7.9483923470       12.8405723804
  C         6.9254430641        5.7417611462       13.6899042453
  C        10.5727829617        5.8867984500        4.3670062592
  C        10.8984593769        4.5807735255        3.6085393468
  S        11.0354861055        2.0178094189        3.6106276958
  H        11.0184045157        2.7773154951       12.5308747251
  H        11.5048180972        1.1551793057       12.5902459293
  C        12.9003047480        2.4309887508       13.4876067500
  N         8.1077351987        8.9284269217       11.9728516924
  C         7.3018479920        8.5256108668       14.1177765847
  C         6.7655265517        6.2734647641       14.9839336165
  H         6.7219594539        4.7002199802       13.4746315998
  C        11.8138185115        6.6687149829        4.5342796355
  C         9.3892409741        6.7022475171        3.8317463833
  C        11.1464695937        4.2292685687        2.2011584684
  C        11.2563042625        2.8461655499        2.0693251481
  H        13.3275451720        3.4410289529       13.2689525782
  H        13.7079293863        1.6559711013       13.4029242331
  C        12.4136769922        2.4271647607       14.9351324343
  S         7.9491274015       10.3483804355       12.6379283547
  N         7.4680977095        9.9153398290       14.1235935820
  C         6.9315340411        7.7171807586       15.2027827066
  H         6.5853627563        5.6585092647       15.7810459428
  H        11.6480438656        7.3543625484        5.3058042587
  H        12.0766305317        7.2331984204        3.6516516211
  C        13.1201028605        5.9056443040        5.0107046723
  H         9.0013675689        7.3604522954        4.5015175958
  H         9.8208365426        7.2688171327        2.9767674060
  C         8.2188501944        6.0221814376        3.1010627189
  H        11.1012450755        4.9943599185        1.4906724325
  C        11.5198564490        2.1757117005        0.8231326194
  H        12.1821650848        3.4356022497       15.3079516698
  H        11.4391274054        1.8222165615       14.9539643288
  C        13.4828652990        1.7832885124       15.8640955918
  C         6.6740543695        8.3387280241       16.4396474570
  H        12.8471499698        5.3350853045        5.9326018171
  H        13.3197503626        5.2213103655        4.2026705263
  C        14.3381467986        6.9053996898        5.2922629948
  H         8.0084651121        4.9912858533        3.3994700075
  H         8.6867397856        5.9096520174        2.0648519864
  C         7.0487440368        6.9653574553        2.9189040537
  C        11.7009170702        0.7872269760        0.6502020856
  C        11.8956984824        2.9842453670       -0.3261844130
  H        14.4264959169        2.4007916585       15.7914374698
  H        13.7684329054        0.7507719511       15.7016506816
  C        12.9524057889        1.9415201936       17.3064576208
  H         7.0243154372        9.3620427671       16.3801397937
  C         6.3491605429        7.9231235385       17.7308348512
  H        14.1363126065        7.5128110896        6.1335553107
  H        14.4144729038        7.4765869818        4.4169917818
  C        15.6897130946        6.0879947533        5.4253363499
  H         6.7670731231        7.3175867748        3.9559884334
  H         7.3477112198        7.9088051929        2.3917135298
  C         5.9859894373        6.2432414085        2.0836450872
  N        11.5450687197       -0.1841651301        1.5835475899
  C        11.9708718834        0.2380488035       -0.5866800512
  C        12.1590521678        2.4286094070       -1.6053943417
  H        11.8897844039        4.0759786384       -0.2819337535
  H        13.3052916886        0.9818444481       17.8978864165
  H        11.8608806986        1.9573659593       17.3457965577
  H        13.3039792541        2.7884577556       17.8394285892
  S         6.1029475605        6.2681190655       18.1994770244
  C         6.3215250855        8.9709683344       18.7440642059
  H        15.6263871361        5.0800423463        5.0145704210
  H        16.3824268804        6.4551761817        4.7134286626
  C        16.1198293960        6.0269587375        6.9323584273
  H         5.6518997905        5.4096577882        2.6770886670
  H         6.4182608541        5.9115034101        1.1382693724
  C         4.9125426004        7.1559085145        1.5530949603
  S        11.6379024535       -1.6098556423        0.9237035230
  N        12.0430088024       -1.1054856742       -0.5944603270
  C        12.1383198649        0.9303475180       -1.7781119016
  H        12.4216046086        3.0675027896       -2.4431020792
  C         5.8675741841        7.0615271173       19.8154234302
  N         6.1005673627        8.4030842099       19.9500766446
  O         6.4649312737       10.1742488663       18.5985069975
  H        16.2739917401        6.9887166433        7.4200584820
  H        15.4622154673        5.3824997097        7.5505710012
  C        17.4886281905        5.5042504741        7.1335834489
  H         5.2266163784        7.6334189458        0.6497743544
  H         4.0694247789        6.5909570502        1.2582563383
  C         4.5198400923        8.3607368477        2.3760677141
  C        12.5072073006        0.2064265313       -2.9856601570
  S         5.5618099602        6.1624838085       21.2511891733
  C         6.1158737116        9.3172674492       21.1347294810
  H        17.5190707995        5.1519854222        8.1579999285
  H        17.7108896736        4.5933674618        6.6520360555
  C        18.5338446374        6.5168823007        6.7258718714
  H         5.2685196503        9.0177339689        2.8711990399
  H         4.1108011506        7.9413366058        3.2109226016
  C         3.3807791491        9.1661217435        1.7157920902
  H        12.1613082180       -0.8194251378       -2.9655600226
  C        12.9416700743        0.4619786486       -4.2261830427
  H         5.4985716326        8.9454779046       21.9656156884
  H         5.6101683275       10.3876389313       20.8524090391
  C         7.5681420738        9.4724014537       21.6013065605
  H        18.3127577866        7.5247375533        7.0003857300
  H        18.5052623046        6.6094323574        5.6521029077
  C        19.9378497402        6.3881428621        7.2003663105
  H         2.5406668174        8.5594474538        1.2610622047
  H         2.8171066040        9.5271315584        2.5434358412
  C         3.9082316603       10.3044418137        0.9177745625
  S        13.5481239042        2.0350286567       -4.6881664996
  C        13.1394824503       -0.6420792875       -5.2309030811
  H         7.7430279388       10.0694898896       22.4344151237
  H         8.1015996455        9.9603611112       20.7914078940
  H         8.0289788463        8.5112871843       21.8031939295
  H        20.6160021857        7.0447307243        6.6722518153
  H        20.0833455256        6.6346301519        8.2637319090
  H        20.0611128269        5.2970954117        7.0754008415
  H         3.3388861539       11.0868169012        1.3986703234
  H         5.0102820310       10.4717935518        0.9945167691
  H         3.7101680542       10.1525084019       -0.1842593683
  C        13.8964230216        1.1877080018       -6.2287229914
  N        13.7921469032       -0.1425717543       -6.3213144079
  O        12.7615286015       -1.7408397673       -5.0668101027
  S        14.3609926828        2.0203059141       -7.8160925342
  C        14.1275760839       -0.8977290132       -7.4947822604
  H        14.5223231678       -1.8859921466       -7.1500588836
  H        14.9492581401       -0.4409223007       -8.0262827077
  C        12.9378772530       -1.0636888131       -8.3877414883
  H        12.4478587113       -2.0136324487       -8.2425350823
  H        13.2235260473       -0.8950800218       -9.4489919591
  H        12.2410101885       -0.3320816177       -8.1653461309
