352
 i =    22200, time =    11100.000, E =        95.8821006172
  H         9.3139565126        5.1427303222       31.4985551436
  C         9.9550047108        5.9583923524       31.8637783117
  H         9.1919641965        6.7314710462       32.1380228652
  C        10.7633806683        6.7220313114       30.8274909394
  C        10.6954582280        5.5429227634       33.0811963946
  C        11.6073002708        5.7449369985       30.0004928425
  H        10.0862659726        7.1710288488       30.1041683695
  H        11.3317052856        7.4219533025       31.3743148894
  H        11.0600944507        4.4866735231       33.1576615274
  H        11.5356265941        6.1488495145       33.2257836912
  H        10.1012609820        5.5680232375       33.9847106580
  C        10.6771346934        4.9924025902       29.0695659217
  H        12.1094612171        5.0423069077       30.6334242211
  H        12.3419490023        6.2911315565       29.4421141385
  C        11.0245904336        5.2790688379       27.6517740877
  H        10.6498587778        3.9655783482       29.3089198725
  H         9.7270375456        5.3066897986       29.2173246478
  C         9.9532756335        4.9435123250       26.4813871331
  H        11.8262474403        4.5991137516       27.5362920300
  H        11.5020560332        6.2032354791       27.4877086485
  C         8.6794469706        5.7446859222       26.3914956552
  H        10.5134136888        4.9147931725       25.5638413956
  H         9.7927961862        3.8460147560       26.5188015989
  C         7.5629726880        4.9729000362       25.7070236566
  H         8.2616787289        6.0893436893       27.3781339790
  H         8.9967353475        6.6757138000       25.9293363615
  C         7.1649016116        3.6979373723       26.3418361289
  C         7.9135598787        4.2337505108       24.4230544921
  C         6.2327419255        5.8287605358       25.4068621105
  C         7.1963721049        2.5433162973       25.5441846372
  C         6.7479522669        3.2703337582       27.6348183559
  C         7.6905974060        2.9115805134       24.3335743437
  C         8.4828555491        4.8641631919       23.3615203640
  H         6.5594140157        6.5198298690       24.5691409068
  H         6.0318545620        6.4140235723       26.3037058298
  C         5.0145095077        5.0659207017       24.8466846142
  S         6.7257715332        1.0679802451       26.2715707178
  C         6.4744964523        1.9004111117       27.7274557011
  H         6.7756215183        4.0813564896       28.3758448409
  C         8.0889296193        2.2242539951       23.2398507287
  H         8.7213485824        5.8712891897       23.4820409902
  C         8.7191159619        4.2126863080       22.1858025358
  H         5.2956862585        4.5023166082       23.9472956658
  H         4.6103628951        4.4145480867       25.6031475398
  C         3.8847430032        5.9032401221       24.3756246684
  C         5.8860145891        1.1416423971       28.9104388870
  C         8.5611770343        2.8527696716       22.1160693854
  H         7.9908299596        1.1561939044       23.1327744520
  C         9.1785627260        4.5958856174       20.9225193393
  H         3.1617837490        5.2733035983       23.7417450962
  H         4.4207471034        6.7544179564       23.7498696497
  C         3.0068914878        6.5947410936       25.4150514710
  C         5.8962900952       -0.2607728586       29.2208090557
  C         5.3800645096        2.0288472636       30.0098061261
  C         8.8781991726        2.1957451331       20.8149721702
  C         9.2834762798        3.5227572578       20.1382641246
  S         9.4496452691        6.1077895964       20.1820916330
  H         2.3644456879        7.1649660474       24.7872909002
  H         3.6291032798        7.2278180132       26.0636301934
  C         2.3476333677        5.6088569555       26.4046820014
  N         6.2052990834       -1.2580435357       28.3104071361
  C         5.4979944101       -0.7904677087       30.4495679129
  C         5.0102338033        1.4620469801       31.2487287275
  H         5.1610093030        3.0300722752       29.8356397528
  C         7.7422149176        1.4109432166       20.2136282730
  C        10.1640262103        1.3000878782       20.9360870509
  C         9.5243212799        3.9889263242       18.8375282892
  C         9.7332082594        5.3553250502       18.7451411672
  H         1.4111253229        5.1132963871       26.0113019202
  H         3.0060607598        4.8200603332       26.7672815459
  C         1.9455966581        6.3567406121       27.6569777860
  S         6.0377071598       -2.7342193641       28.9596742315
  N         5.5375436242       -2.2023019814       30.4395490205
  C         5.1382846841       -0.0100058328       31.5190120074
  H         4.6335954646        2.0712626095       31.9918601262
  H         7.4270891963        0.5943640705       20.8540671137
  H         8.1412984966        0.8661366830       19.4128078830
  C         6.6121095224        2.4001663654       19.8715807182
  H        10.3578383826        0.9480818088       19.8945572993
  H        10.0091737571        0.4927662425       21.6675211857
  C        11.4251048104        2.0924632236       21.4274479663
  H         9.6675947827        3.3123051800       18.0122430498
  C        10.0618148600        6.0715263650       17.4641993926
  H         0.9379331559        6.8105944923       27.5279527644
  H         2.6727422052        7.0978655446       27.9069995180
  C         1.8319226204        5.4346727782       28.8816471721
  C         4.9570439920       -0.6249594840       32.7767839294
  H         6.9937823273        3.0078193482       19.0161569471
  H         6.2558384869        2.9515230661       20.7373962122
  C         5.4751844272        1.5737115247       19.2383839149
  H        11.3799149832        2.3736683420       22.4900805505
  H        11.6205950470        3.0453648261       20.9140568985
  C        12.7559014715        1.2959876169       21.4980782732
  C        10.0098596194        7.4726418247       17.2040756825
  C        10.4550973364        5.2960271730       16.2165890357
  H         1.6342963424        4.4058309816       28.4987287101
  H         2.7633799804        5.2174475343       29.4205137476
  C         0.7247725054        5.7974555164       29.8631397218
  H         4.9893816845       -1.7403904536       32.8016160234
  C         4.5422003630       -0.1958240104       34.0143881388
  H         5.0177217619        1.0841677537       20.1237849530
  H         5.7753544042        0.8023608213       18.5340482466
  C         4.4246911898        2.4251503707       18.5529634150
  H        12.7355437578        0.5852717842       22.3112380112
  H        12.7190877656        0.6957363299       20.5917137408
  C        14.0039941887        2.0626666908       21.7815486105
  N         9.8096121642        8.4378149128       18.2252110799
  C        10.4145457389        8.0556253840       15.9912419267
  C        10.7260917954        5.8578386260       14.9828131213
  H        10.4017731485        4.2224740457       16.1930512445
  H        -0.2529429604        6.1046257331       29.5132030387
  H         0.5382732060        4.9132731292       30.4227825756
  H         1.2937332826        6.4954411402       30.4906158840
  S         4.3025388507        1.4402833270       34.5239255287
  C         4.4935612497       -1.2282680607       35.1319244676
  H         4.4316957631        3.3538136939       19.0103973006
  H         4.8242403293        2.5619543249       17.6015084091
  C         3.0268546739        1.7537896128       18.6086647384
  H        14.1528229951        2.8372520023       21.0916284355
  H        14.8299959817        1.3554192782       21.5629455917
  C        14.1429486638        2.5547102836       23.2151622611
  S        10.0252510379        9.9012666451       17.5675283369
  N        10.4795709112        9.4232795840       16.0870329173
  C        10.8104792902        7.3140370059       14.8479105786
  H        10.9103584207        5.2590631305       14.1008979314
  C         4.1625676105        0.7446996723       36.1492809827
  N         4.2364473568       -0.5469329841       36.3159800290
  O         4.6213475011       -2.4482121014       34.9900233891
  H         2.2803997842        2.4804149324       18.2226307608
  H         2.7902005269        1.4976429958       19.5982503388
  C         2.8930926266        0.5649714097       17.7609937442
  H        13.3679568774        3.2871270932       23.3199670419
  H        14.0056565509        1.7309017668       23.9564919897
  C        15.4641270978        3.2898664427       23.5158294101
  C        11.0465503357        8.0435586917       13.6576451446
  S         3.9266864059        1.7453081379       37.6059881907
  C         4.2232325816       -1.3052251521       37.5963055504
  H         2.1675555958        0.8809222985       17.0132316636
  H         3.7642475851        0.0381343098       17.4501782850
  C         2.1016729705       -0.4565788316       18.5488462161
  H        15.2817124504        3.6824468414       24.5371185882
  H        15.6658986412        4.1579681374       22.9395104019
  C        16.7380566236        2.4343252983       23.6331841545
  H        10.9770043785        9.0657290594       13.8562299786
  C        11.6245474175        7.7132573615       12.4746643860
  H         3.4339419286       -1.0855922614       38.3959866476
  H         3.9849634697       -2.2851565823       37.3077144096
  C         5.6100615787       -1.4224772495       38.1697322642
  H         1.1772984746       -0.0673703182       18.9607143912
  H         2.6385775200       -0.8253848909       19.4591092120
  C         1.9504171793       -1.6815321022       17.6206285511
  H        17.4724936713        3.1403146406       24.0868935855
  H        16.4650357481        1.5732302741       24.2510184582
  C        17.2454497116        2.0783997949       22.2406941561
  S        12.2089401574        6.1799343580       11.9439643566
  C        11.7144230537        8.8078907145       11.4445597892
  H         5.8163008927       -0.6675818469       38.9130660194
  H         5.8113547370       -2.4320874971       38.5766219002
  H         6.2909616345       -1.3616963689       37.3104088672
  H         1.3069318365       -2.4243715378       17.9674598665
  H         2.9209195778       -2.0655794007       17.2850923828
  H         1.4838831153       -1.4456634185       16.6954407941
  H        18.3490877345        2.1541276646       22.1571755047
  H        16.8077292941        2.7375575821       21.4380799260
  H        17.0591985995        1.0631259413       21.9710967547
  C        12.6007285671        7.0000488211       10.4454528691
  N        12.3227449630        8.3104175617       10.3676000571
  O        11.4985565065       10.0113819388       11.7347812884
  S        13.4776884984        6.1992151396        9.1184876911
  C        12.4856694680        9.1929071177        9.2188473151
  H        12.5389126705       10.2705548025        9.4379666240
  H        13.4113022727        9.0045509338        8.6691370055
  C        11.3396351914        9.0607640786        8.2918641885
  H        11.0825856426        8.0250947110        8.0117535293
  H        10.3005008715        9.2935253547        8.6089198363
  H        11.5935857036        9.5527740435        7.3094469972
  H         4.2434873183        1.1338403559       12.7111157649
  C         4.0631861554        2.2415353746       12.7915775060
  H         5.0907542892        2.5775042293       12.8366453392
  C         3.3109530527        2.8747561340       11.5712256890
  C         3.4519335161        2.3681097717       14.0753362454
  C         4.1254235033        3.1327540553       10.3593462310
  H         2.8908448817        3.8452189432       11.8623998068
  H         2.4631948602        2.3191954932       11.1775561654
  H         2.5363095654        1.8813146269       14.1375785896
  H         3.2920146264        3.4549798161       14.2946277642
  H         4.1433932147        1.8848426625       14.7867726227
  C         4.7203354349        1.7870107033        9.8060021767
  H         3.5448284709        3.6145103521        9.5403438555
  H         4.9667004920        3.8509445625       10.5728772139
  C         5.6293890426        1.8485664680        8.5767460378
  H         3.8661105856        1.1283543349        9.5680856784
  H         5.2701303934        1.2199860491       10.5527039918
  C         6.9434626529        2.6390212809        8.6851756017
  H         4.9781275336        2.2041071620        7.8305602924
  H         5.8289940751        0.8453753663        8.2310965660
  C         8.0663837927        2.0562060561        9.5047558686
  H         7.2942686944        2.8946752178        7.7024599168
  H         6.6848023677        3.5898539318        9.2371754530
  C         9.3842229062        2.8194815994        9.5574842931
  H         8.2654192045        1.0686914885        9.0168908628
  H         7.6833076167        1.8016588557       10.4965192922
  C         9.2418576977        4.1866341987       10.2753352665
  C         9.6534351156        3.4713620839        8.2714257135
  C        10.5441446930        1.9774179797       10.0094705106
  C         9.3545650102        5.2931543398        9.4471919894
  C         8.8250535143        4.5753338278       11.5910022281
  C         9.7208487248        4.8300389193        8.2013861836
  C         9.9248834406        2.8315229085        7.0414031973
  H        10.2198367516        1.3771048235       10.9108614304
  H        10.6550074865        1.1823277031        9.2361514723
  C        11.8147026866        2.8187385113       10.2270582259
  S         9.0009078418        6.8016905087       10.2226508676
  C         8.4820067981        5.9356089254       11.6314656361
  H         8.4567905386        3.8373594669       12.2648853036
  C         9.9995786816        5.4226303821        7.0518052863
  H         9.8631061117        1.7240353395        7.2098974007
  C        10.3970687630        3.4855162777        5.9193288897
  H        11.6034360375        3.8569486484       10.5196965631
  H        12.2373534658        2.8683900956        9.1923165078
  C        12.8134213549        2.2790738530       11.2072605773
  C         7.8332261165        6.6602219715       12.7716972048
  C        10.3761931293        4.8310442593        5.8557340842
  H         9.9606691466        6.4806970472        6.9536143179
  C        10.7994243359        3.1668708328        4.6517013254
  H        13.5814267630        3.0665251346       11.3929992052
  H        13.3348294759        1.3842501455       10.8396216784
  C        12.2295796571        1.9160383193       12.5406232059
  C         7.7818332584        8.0423379168       13.0414267767
  C         7.1798263633        5.8029310309       13.8201475266
  C        10.7829654869        5.5747282308        4.5871656854
  C        11.0271921367        4.2768150076        3.8613742156
  S        10.9861298810        1.6125536152        3.8277902707
  H        11.4358149675        2.6345760175       12.7980498397
  H        11.7416925317        0.9902024961       12.4912568221
  C        13.2508499371        1.7586635880       13.6173608359
  N         8.2089261873        9.0313373297       12.1167839017
  C         7.4599125603        8.5473385354       14.2890266140
  C         6.7752228069        6.3566174920       15.0143289084
  H         6.9419644726        4.7611247936       13.6631773819
  C        12.0904825772        6.4495331003        4.7595779538
  C         9.5962282937        6.3885617240        4.0522010318
  C        11.4174996131        3.8446268324        2.5673946846
  C        11.4032368631        2.4359028462        2.3962653947
  H        13.7826616263        2.7035581264       13.6268723753
  H        14.0544951998        1.1322403257       13.3565631654
  C        12.6970020435        1.4615361413       14.9673938004
  S         8.3916117746       10.3896072192       13.0125719495
  N         7.6891460106        9.8987142004       14.3328695633
  C         7.0277918107        7.7450735733       15.3570375409
  H         6.1793494983        5.7775978232       15.6913517404
  H        11.9523090731        7.1547875119        5.5819768686
  H        12.3309460788        7.0778078914        3.8966700706
  C        13.3470460115        5.6165457571        4.9894858563
  H         9.3371559331        7.3189624850        4.5330678837
  H         9.9764018840        6.6149285836        3.0437842993
  C         8.2060209027        5.6305577761        3.7645807851
  H        11.4850145096        4.5941879787        1.7834148622
  C        11.5551741154        1.6950586431        1.1250618483
  H        11.5934022102        1.5861862267       14.9949989053
  H        12.9762388687        0.4126771313       15.1655664199
  C        13.3822482081        2.2745514483       16.1240479592
  C         6.8031321965        8.2948869910       16.6260335893
  H        13.1136030019        4.9085710297        5.7502071709
  H        13.6370749574        4.9466063420        4.1684797046
  C        14.5566515230        6.5257867617        5.2535444577
  H         7.8156095272        5.2998169719        4.7892456153
  H         8.3135511535        4.6659547009        3.3058281597
  C         7.1806450057        6.5613079714        3.1131491417
  C        11.5543738736        0.2664018340        0.9641988762
  C        11.6889259998        2.4236429054       -0.1420385751
  H        13.3773226180        3.3179283379       15.8619483265
  H        14.4396673575        2.1399128545       16.3143383948
  C        12.5707789928        2.0929387249       17.4470070924
  H         6.7969501030        9.4223063400       16.6816092746
  C         6.5866427078        7.7571878517       17.8573507856
  H        14.3870615956        7.0345528673        6.1981454944
  H        14.7002417437        7.2161455398        4.4181514422
  C        15.8347430076        5.7881403527        5.4507079058
  H         7.1228365551        7.4475510894        3.7056569434
  H         7.5782330743        7.0067555045        2.2058294518
  C         5.7686032266        6.0622260781        2.9019685039
  N        11.3803715255       -0.7085222386        2.0302812106
  C        11.7761920674       -0.3965387133       -0.2334626125
  C        11.8709052856        1.7747381619       -1.3433569410
  H        11.6219077255        3.4936706356       -0.1337964764
  H        11.5225299232        2.3583002459       17.4052539932
  H        12.9586229367        2.7521034429       18.2795436706
  H        12.5903023804        1.0596735327       17.8022246231
  S         6.2774349992        6.1679842275       18.3152725287
  C         6.5024433131        8.6899224848       18.9765285260
  H        15.8192642726        4.8212217803        4.8908531559
  H        16.6536614712        6.4080114333        5.1116290382
  C        16.0378266273        5.6401849239        6.9517081868
  H         5.2348980619        6.4423587171        3.7697167104
  H         5.5599360350        5.0109695382        2.8692948571
  C         4.9093854304        6.7889844411        1.7279088775
  S        11.4648725556       -2.2241020664        1.4505927856
  N        11.8105709172       -1.7932782221       -0.0593039747
  C        11.9692152508        0.3008174291       -1.4236168267
  H        12.0527501948        2.3723926702       -2.2414340198
  C         6.1360878619        6.7140030534       19.8739121451
  N         6.1975399359        8.0392230853       20.0773723919
  O         6.5561213143        9.9301384607       18.8968971032
  H        15.9045720377        6.6266232783        7.4386174898
  H        15.1658651783        4.9379490486        7.2152602767
  C        17.4100122516        5.0521172713        7.3943772527
  H         5.3359308434        6.5624221242        0.7444521999
  H         3.8546520413        6.4655764952        1.7274606273
  C         4.9525333294        8.2960260064        1.9334475710
  C        12.3648064226       -0.3925250425       -2.6109702812
  S         5.9131630121        5.7125733839       21.3128011997
  C         6.0464305431        8.6546532712       21.3933757348
  H        17.3027022819        4.8823216511        8.4528963591
  H        17.6719168619        4.1097479958        7.0112923554
  C        18.5052060441        6.0973195873        7.1002706003
  H         5.9100110236        8.7222447152        1.8306511993
  H         4.7559432208        8.4887461358        2.9416203501
  C         3.9325543047        9.0171796312        1.0733534238
  H        12.1280298999       -1.3823500701       -2.4831077047
  C        12.9950106284       -0.0679040515       -3.7707202534
  H         5.3438558476        8.2118219098       22.1526776727
  H         5.4918084860        9.5914278647       21.2132634929
  C         7.3917216438        8.7502252493       22.1081615325
  H        18.9099374378        6.4562758627        8.0147480734
  H        18.0914176866        6.9452705993        6.5287998943
  C        19.5604858287        5.4967543339        6.2174039232
  H         4.2522465078        8.9610954167       -0.0089421873
  H         3.0084989006        8.4517671317        1.0801071085
  C         3.7020763318       10.4689670496        1.5166916675
  S        13.4812842333        1.5274339343       -4.2861872803
  C        13.2790729967       -1.1296832470       -4.7651816484
  H         8.2084838266        8.6355441493       21.3923369609
  H         7.4704309754        7.9534476815       22.7919757025
  H         7.4727899389        9.7459978582       22.6449724989
  H        19.9321522736        6.3151810520        5.5694129798
  H        20.5301640094        5.0870844219        6.7112625729
  H        19.3523542692        4.6996651883        5.4771393833
  H         4.2560108648       11.0775958311        0.8507475037
  H         2.6762905236       10.7109063896        1.4350378856
  H         3.9797896302       10.6757503983        2.5557531435
  C        14.1201675810        0.7308958607       -5.7307423806
  N        13.9971043622       -0.6230549090       -5.7780915308
  O        13.0216094642       -2.3148907890       -4.4997280206
  S        14.6025824122        1.5759871119       -7.1767592355
  C        14.2625227426       -1.4565957966       -6.9331199013
  H        14.6998880183       -2.3752661004       -6.5767115678
  H        15.1611999745       -1.0405784820       -7.4159187461
  C        13.1497661301       -1.5374127276       -8.0202004913
  H        13.2927276017       -2.3179859396       -8.7388663753
  H        13.0018824278       -0.5868400567       -8.4618971066
  H        12.2621858286       -1.9251390882       -7.4852212216
