352
 i =    28400, time =    14200.000, E =       100.3155196684
  H        10.0313595345        5.0461655150       31.7255654543
  C        10.7445648072        5.7366976950       32.1511194128
  H        10.2350760900        6.4502227866       32.7066639205
  C        11.4933287405        6.3318567877       30.9731399806
  C        11.6033180864        4.7540870964       33.0469523794
  C        11.9355471941        5.4942781308       29.8015900592
  H        10.8212537119        7.1238605504       30.5786717364
  H        12.4202612124        6.8350008798       31.3864678230
  H        11.0480282083        3.7794735826       33.1181415350
  H        12.5060774607        4.5418176953       32.5976326410
  H        11.8286678989        5.1013094180       34.0903773356
  C        10.7246562897        5.0795592852       28.9609663594
  H        12.5341008699        4.5748846536       30.0257022194
  H        12.5056013115        6.0659047081       29.0632227484
  C        11.0543587209        5.1014763475       27.4639122120
  H        10.3564700788        4.1557506399       29.4550996019
  H         9.8939562595        5.8454859987       29.0870549904
  C         9.9740368295        4.3872340395       26.6701228766
  H        12.0069542690        4.5619303510       27.3598556778
  H        11.2521445250        6.0830809396       27.0012833256
  C         8.8374463170        5.3902355773       26.2137684163
  H        10.4893415949        3.9313819422       25.7512687619
  H         9.5221030702        3.6298826619       27.2681485081
  C         7.6139707580        4.6535843579       25.5614878945
  H         8.5288204193        6.0086086657       27.0455789132
  H         9.2495835666        6.0241214436       25.4289871807
  C         7.1609497862        3.2983970802       26.1620667318
  C         8.0383624051        3.9822184115       24.3262786483
  C         6.3450373388        5.5794021813       25.4752506530
  C         7.5003934366        2.1908701508       25.3999666239
  C         6.6609718805        2.9259149971       27.4323597754
  C         7.9171752685        2.6362921594       24.1658391926
  C         8.4786603883        4.6264798721       23.1488684124
  H         6.5393571212        6.5454795293       25.0712730499
  H         5.9266239354        5.8352475041       26.4238881025
  C         5.1236393890        4.9301982365       24.8069770700
  S         7.0152155666        0.6635299271       26.2074226693
  C         6.5222798815        1.5759044221       27.5651491358
  H         6.3992766726        3.7441862005       28.2077301670
  C         8.2313810628        2.0306127139       22.9908654116
  H         8.5239848551        5.7102121242       23.2508450605
  C         8.8703875166        3.9908395468       22.0028654212
  H         5.3342731708        4.3246701431       23.9438633453
  H         4.8214188148        4.1047922282       25.4200601615
  C         3.8855535831        5.8737330040       24.6141875870
  C         6.0288113243        0.9453798324       28.8738345937
  C         8.8490110033        2.7034497203       21.9703144588
  H         8.2733045138        0.9248819951       23.0123736513
  C         9.2244671313        4.3732374173       20.7333883236
  H         3.1319685795        5.3633121479       23.8722765673
  H         4.2828922147        6.7700366481       24.1894755314
  C         3.1862470934        6.1767129632       25.9825941083
  C         5.9411782776       -0.4420939868       29.0322359605
  C         5.5305878931        1.8352433742       29.9154933161
  C         9.2090397260        2.0061210711       20.6802306118
  C         9.4869763785        3.2908251568       19.9405751443
  S         9.5025873777        5.9406116292       20.0968867065
  H         2.5126621926        7.0049135445       25.7903011326
  H         3.8966567110        6.5883105564       26.7325378166
  C         2.3483931723        5.0042092029       26.4854394629
  N         6.2773086549       -1.3732173321       28.0958227736
  C         5.5098830291       -1.0118768735       30.2372724425
  C         5.1476227825        1.2675874363       31.1545141003
  H         5.5636344358        2.9534264380       29.8541016674
  C         8.1037166652        1.1267872105       20.0541487726
  C        10.4653356619        1.1373526918       20.9428048319
  C         9.7779410748        3.7581505861       18.6583227564
  C         9.9120720102        5.1180971534       18.6475789404
  H         1.6597717725        4.6027101409       25.7554358520
  H         2.9595783049        4.1784236213       26.7121399736
  C         1.5575831137        5.4516958041       27.7717636552
  S         6.1804114034       -2.8159264113       28.7867024347
  N         5.6880015018       -2.3575559558       30.2648113796
  C         5.1811154544       -0.2115153399       31.3660115687
  H         4.8445827777        2.0019866573       31.8965920649
  H         7.9781763906        0.2785922378       20.7509053731
  H         8.4334337529        0.6990142240       19.1523824249
  C         6.8144758281        1.8807463070       19.8991363686
  H        10.5880765221        0.5901393738       20.0736075168
  H        10.2043683078        0.4226939132       21.8235778323
  C        11.7016463599        1.8618646852       21.3126910392
  H         9.8311866405        3.0435103334       17.8048408603
  C        10.1866294581        5.8407214851       17.3612146546
  H         0.6439401463        4.9255747173       28.0303072926
  H         1.2204231491        6.4575296292       27.6363192765
  C         2.4674311761        5.4896871481       28.9858714294
  C         4.8241961654       -0.8083322744       32.6612201893
  H         6.8034774076        2.6153974521       19.0965412968
  H         6.4477188396        2.2982329039       20.7874590803
  C         5.7795130716        0.8886743085       19.4794041855
  H        11.5929607009        2.2197263654       22.3423177050
  H        11.8016961431        2.6778910939       20.6661352709
  C        12.8597914440        0.8342527479       21.1619880611
  C        10.3134906846        7.2188576350       17.2300452368
  C        10.3846236713        5.0772001112       16.0824673776
  H         3.0016366111        4.6071796269       29.2660573097
  H         3.2910525441        6.1245687101       28.7197453740
  C         1.7054771901        5.9299808089       30.2058068682
  H         4.8769013184       -1.8861717294       32.6059480258
  C         4.5533445954       -0.2667506030       33.8715434731
  H         5.5990861256        0.2406258268       20.3468339061
  H         6.1998812065        0.2922893989       18.6911282824
  C         4.4659632272        1.5344930271       18.9877025795
  H        12.5821718828       -0.0011513227       21.7927469732
  H        12.9134010338        0.2887596087       20.2447898198
  C        14.3093024490        1.2793825404       21.5843143812
  N         9.8786761408        8.0933949674       18.2169601597
  C        10.5585978505        7.8796956753       16.0449038981
  C        10.6840321777        5.6906504583       14.9058392433
  H        10.4565705291        3.9710119447       16.1656747690
  H         1.4115042060        5.1521487801       30.9858051987
  H         2.4174459284        6.4999034390       30.7877066113
  H         0.8244268026        6.5051980410       29.9632959932
  S         4.4749669689        1.4183095326       34.3209395236
  C         4.4060389513       -1.2541587172       34.9652599500
  H         4.2786248006        2.4279933742       19.4886806766
  H         4.5683927167        1.8459595151       17.9146209615
  C         3.3324299470        0.5863919370       19.2280842717
  H        14.5356529809        2.2064452489       21.1257693025
  H        15.0488455779        0.5508433638       21.1670791403
  C        14.3853943013        1.4006242376       23.1227449505
  S        10.1659530518        9.5942151695       17.6750926988
  N        10.6841371779        9.2483632229       16.1930594809
  C        10.8865061229        7.1684559867       14.8859762383
  H        10.9788764104        5.0869566676       14.0128295992
  C         4.2365412363        0.7377462823       35.9926423553
  N         4.2270224238       -0.6252195509       36.1367249851
  O         4.4296189151       -2.4726387018       34.8165287937
  H         2.4743117722        1.2812332881       19.2205909365
  H         3.2028889963        0.0158774846       20.1805250058
  C         3.2610307618       -0.5003147992       18.0882056819
  H        13.4039243406        1.7358350560       23.4534823063
  H        14.5372144052        0.4191715555       23.5636900257
  C        15.5178216616        2.2557668361       23.6024325215
  C        11.2911747087        7.9874202341       13.7622647504
  S         3.6034222819        1.6984237060       37.2676653080
  C         4.3043305284       -1.2389082090       37.4906477298
  H         2.9328144928       -0.1726998929       17.1263574919
  H         4.2568836079       -0.9419844093       18.0959464329
  C         2.3877673589       -1.6608917440       18.4633395587
  H        15.3905869205        2.4184105853       24.6577829724
  H        15.4306944604        3.2717798916       23.1380827219
  C        16.9257980053        1.7092879960       23.4122071149
  H        10.9432918723        8.9931749761       13.8675837439
  C        11.8177395552        7.6966214940       12.5871510212
  H         3.4970581848       -0.8397706751       38.1457092142
  H         4.0567601983       -2.2630431119       37.3426248623
  C         5.7083295074       -1.2111428158       38.0738234090
  H         1.5090958455       -1.1951017937       18.7756081749
  H         2.7542699248       -2.1975781834       19.3586479197
  C         2.0466163646       -2.6560896689       17.3538043526
  H        17.4463513908        1.7100936182       24.3071168319
  H        16.8938895803        0.6750684654       23.1714867498
  C        17.7277742212        2.4800819859       22.3561174381
  S        12.4825159307        6.1853479991       12.0744085608
  C        11.9238050984        8.7709362621       11.5251410889
  H         6.0168381860       -0.2898886639       37.5561121364
  H         5.8228968303       -0.9765761840       39.1979696630
  H         6.2588825672       -2.1236334434       37.7870756095
  H         1.3580847666       -2.2131927876       16.6244184596
  H         1.4465496619       -3.4618233019       17.8317151392
  H         2.8345465082       -3.3161253096       16.9838913579
  H        17.5751867972        2.1305646902       21.3597216218
  H        18.7473957896        2.6814824126       22.7476794745
  H        17.3053401316        3.4473291071       22.2748151005
  C        12.9510976204        6.9694477205       10.5349664025
  N        12.5820298995        8.2839517838       10.4599336229
  O        11.4918993855        9.9300140197       11.6164950612
  S        13.7229870193        6.2231067405        9.1181302683
  C        12.5557254547        9.0379233663        9.1954879355
  H        12.6826002204       10.0831220538        9.4986595340
  H        13.3898636691        8.8903211163        8.6350641521
  C        11.2024393943        8.9524952812        8.4743520530
  H        10.8777225917        9.9178729423        8.0325014451
  H        11.2537129832        8.1188087729        7.7001031693
  H        10.3705333989        8.6307874544        9.0773298888
  H         4.9907560411        1.4789087246       13.1947435619
  C         4.1858593776        2.1796791309       13.0609452852
  H         4.6095663357        3.1234015127       13.2946659575
  C         3.3427852290        2.0370541033       11.7121648116
  C         3.3311313879        1.6739361524       14.2136944499
  C         4.0744826263        2.3121081337       10.4484471458
  H         2.3946500768        2.5602993074       11.7333870543
  H         3.0907724707        0.9983204103       11.6542877553
  H         2.9603325107        0.7025647758       13.9981783868
  H         2.4099585787        2.2439584015       14.2017024606
  H         3.7003141556        1.8619723177       15.2028077134
  C         4.7047820870        1.0747335123        9.7946708613
  H         3.5726475187        2.9163260437        9.6522521478
  H         4.8431645678        3.0223782661       10.7196188283
  C         5.4141563247        1.3185769562        8.5298209888
  H         3.9981258165        0.2836903969        9.6847289338
  H         5.4490313609        0.6174586283       10.4659521140
  C         6.6609098686        2.2031478298        8.6447304846
  H         4.7154848875        1.8720851479        7.9620448823
  H         5.6030292803        0.4313143213        7.9499263839
  C         7.8990125144        1.5039617891        9.2346679838
  H         6.8710593024        2.6591310890        7.6465091304
  H         6.4897257632        3.0449469975        9.3876263910
  C         9.1356354796        2.4824013393        9.3938527588
  H         8.3160992591        0.7896944241        8.4656153162
  H         7.7503205594        0.9421534067       10.1586432415
  C         8.6865954691        3.8065298880       10.1245624086
  C         9.5853984490        3.2465387111        8.1453002271
  C        10.3483363648        1.8940137972       10.1279798481
  C         8.9593156743        4.9388080441        9.3419160691
  C         8.2285455417        4.1446155090       11.4144997351
  C         9.4287205416        4.5915549178        8.0787634865
  C         9.9832343551        2.6738277332        6.9470833119
  H         9.9401494357        1.4143385061       11.0051393250
  H        10.8066518392        1.0629074697        9.6231600030
  C        11.3604547798        2.8840286159       10.6818942200
  S         8.4993591201        6.4316404257       10.0829526041
  C         8.0665620617        5.5064703684       11.5192064007
  H         8.1688415116        3.3841781199       12.1704427929
  C         9.7251583422        5.2273907865        6.9340405320
  H        10.0389846729        1.6274585815        6.9404534238
  C        10.2469995753        3.3312970124        5.7868335684
  H        10.8720777188        3.6398081180       11.2877924031
  H        11.9238360848        3.3209801588        9.8097062575
  C        12.5432662888        2.3053180164       11.4563772794
  C         7.7065119029        6.1548869172       12.8269690164
  C        10.2022344953        4.6652762835        5.7231988667
  H         9.5018842824        6.3174144095        6.9714629044
  C        10.6998977989        3.0110606861        4.5376849506
  H        13.3739540699        3.0258113175       11.3157721104
  H        12.9262938438        1.3668039221       11.0559728292
  C        12.1503711612        2.1176024049       12.9101819135
  C         7.8422953575        7.5124900197       13.1913499525
  C         7.1806836214        5.2837982459       13.9133929891
  C        10.4767534059        5.4210572923        4.4843379105
  C        10.8174380881        4.1267046515        3.7823492406
  S        11.1651689590        1.5150171734        3.7096783600
  H        11.8224572003        3.0169755447       13.4569758187
  H        11.2963773159        1.3698100008       12.9533037648
  C        13.1982725464        1.5196524464       13.7462771289
  N         8.1966494039        8.5606108165       12.3330347207
  C         7.7095198803        7.9934800560       14.5074304502
  C         6.9439088624        5.7515533646       15.2161135007
  H         7.0165236988        4.2749226653       13.7096499511
  C        11.7672571966        6.2981558563        4.7100024604
  C         9.2767057449        6.2822626147        3.9278925953
  C        11.1126527068        3.8202047128        2.4772760003
  C        11.4636666552        2.5058861338        2.2824866436
  H        14.0171679065        2.2788029616       14.0340418848
  H        13.6596643747        0.8282945348       13.0396100630
  C        12.8230771537        0.9025916463       15.0121164936
  S         8.2583052240        9.9505997761       13.1143276426
  N         7.7427951661        9.3637993627       14.6071180985
  C         7.1380159594        7.1895306097       15.5596410723
  H         6.5320825311        5.1221720756       15.9610033618
  H        11.7151773497        7.0471451359        5.5026061794
  H        11.9567618390        6.7437379690        3.7046173847
  C        13.0606613863        5.5064866067        4.9057542164
  H         9.0202892823        6.9800831278        4.7405912146
  H         9.7082601579        6.9329393382        3.1287844618
  C         8.1056799830        5.4360404029        3.4435258633
  H        10.9953572792        4.6362160115        1.7873341292
  C        11.6912054881        1.8077887760        0.9603690944
  H        11.9323436477        0.2627771161       14.9484071100
  H        13.6976283112        0.3307895048       15.3422591672
  C        12.4709137298        1.9934083334       16.0615937772
  C         6.8532069319        7.7841158455       16.8231129843
  H        12.9066493189        4.7071946451        5.6797902735
  H        13.4292256957        5.0569868530        3.9931601523
  C        14.1112395273        6.3787197721        5.4430397440
  H         7.4934392818        5.0930751029        4.2311919664
  H         8.4543929387        4.5179641808        2.9919911087
  C         7.2224322960        6.1304181043        2.3885324721
  C        11.8399384865        0.4340710982        0.7947004717
  C        11.8329215843        2.6210105626       -0.2345998181
  H        11.4173775211        1.8190447421       16.2575440617
  H        12.6424399027        3.0232212166       15.6657608255
  C        13.2185931695        1.8153166368       17.3635048028
  H         6.8798922488        8.8328598712       16.8632893121
  C         6.5897410308        7.2689757619       18.0550835276
  H        13.7858389334        7.1467170578        6.1554590364
  H        14.6147819650        6.7434252839        4.5187671643
  C        15.2222040071        5.4534705866        5.9734853796
  H         7.5712240440        7.1463365400        2.3869954317
  H         7.4843705870        5.7338548186        1.4197247732
  C         5.6643655138        5.8748796133        2.5363460935
  N        11.7366935316       -0.5814751978        1.7676375402
  C        12.2292344958       -0.1324148777       -0.4045020543
  C        12.2306164425        2.1049565418       -1.4305553521
  H        11.7410438752        3.6645832828       -0.1745809369
  H        12.9764150024        2.5799988405       17.9865013609
  H        14.3168228239        1.7462493811       17.1453080692
  H        12.9595912465        0.9628966400       17.9045683180
  S         6.2569228272        5.5943729483       18.4715125249
  C         6.4480286966        8.1560678289       19.1905700461
  H        14.8424432626        4.9884661097        6.8700741664
  H        15.4712914885        4.6941710406        5.2687631143
  C        16.3722853294        6.1990139124        6.5369608894
  H         5.4243348849        6.1716930934        3.5676027540
  H         5.3733891119        4.8384824332        2.4490760537
  C         4.9353522645        6.8142179678        1.5813583008
  S        11.9282536626       -2.0098009470        1.1739002770
  N        12.3982817734       -1.5097908814       -0.3010499804
  C        12.4041970332        0.6320743933       -1.5860622686
  H        12.2269058342        2.7253486665       -2.2765391139
  C         5.9724051006        6.1844602307       20.1158611681
  N         5.9418574420        7.5114068853       20.2313086788
  O         6.5721816375        9.3975778126       19.1579375105
  H        16.4594200171        7.1112850349        6.0185125252
  H        16.2204948726        6.3855437881        7.5678209682
  C        17.5521356684        5.2286316917        6.5519330875
  H         5.6845968401        7.5156213589        1.2193463410
  H         4.6800645747        6.2144901340        0.6920142231
  C         3.8059063080        7.6418298476        2.2019842847
  C        12.7336568820       -0.0821214573       -2.7927040975
  S         5.3651999469        5.2237413205       21.4603665244
  C         5.6938058915        8.2086441931       21.4458281688
  H        17.2138481217        4.2499034185        6.9775118088
  H        17.9320370273        5.0496135519        5.5373312944
  C        18.7143896127        5.7200295119        7.4299925901
  H         3.7575015864        7.4245999842        3.3179045989
  H         2.8795160212        7.1392586788        1.8726372074
  C         3.8392389929        9.0979607756        1.7872771161
  H        12.7717465079       -1.2166965359       -2.6360968503
  C        13.3356762782        0.3500626961       -3.9127205906
  H         4.7902184416        7.7590318256       21.8904412644
  H         5.2669544804        9.1932448880       21.3646971035
  C         6.8852261457        8.1784867096       22.3959823092
  H        18.9229304096        4.9492874363        8.1543353154
  H        18.4349658381        6.6100461366        7.9897690507
  C        20.0667221075        5.9059352503        6.7134251975
  H         3.1477700361        9.7138095571        2.4579468167
  H         4.8629074315        9.5774267556        1.9072286579
  C         3.5101678373        9.3188456066        0.2940386551
  S        13.8612496844        1.9236482865       -4.3012362893
  C        13.5925941775       -0.7053759837       -4.9672733871
  H         6.9021928988        7.1356192897       22.7313051030
  H         6.8446346389        8.8239112928       23.2545394810
  H         7.8593955356        8.3287239498       21.8205868567
  H        20.0048782057        6.4400080494        5.7671819740
  H        20.6431142673        6.5187658745        7.3659642069
  H        20.5867022769        4.9786638869        6.5556673772
  H         4.2356104992        9.9446538275       -0.1934384429
  H         3.5725102303        8.3089449600       -0.2224014969
  H         2.5248267623        9.6565921545       -0.0275223129
  C        14.4113388347        1.2034200217       -5.8717926365
  N        14.2301150295       -0.1674462144       -6.0350946540
  O        13.4565673105       -1.9301440984       -4.7344803183
  S        15.1699864944        2.0358370551       -7.2273067900
  C        14.6020755279       -1.0237554209       -7.2067533524
  H        14.6458709862       -2.1039074030       -6.9637054260
  H        15.6156837267       -0.9542101860       -7.5602583841
  C        13.5894237288       -0.6821331726       -8.3741494552
  H        14.2489228638       -0.5254500855       -9.2570834641
  H        12.9397423083        0.2127543512       -8.1305986679
  H        12.9363062053       -1.4793199369       -8.6190516432
