352
 i =    41200, time =    20600.000, E =       100.2443884182
  H        10.1148012559        4.7319696594       31.6716790056
  C        10.1713003361        5.6329497186       32.1792460001
  H         9.0988983420        5.9360391001       32.3156584050
  C        10.9290081470        6.5805918596       31.2359504031
  C        10.7050145915        5.4953652152       33.6299140500
  C        11.2443824181        6.0570243969       29.9145333376
  H        10.3033846003        7.4828139999       31.2491746721
  H        11.8806021872        6.9615194541       31.6107683130
  H         9.9661987429        5.8692259714       34.2827359063
  H        10.8779668357        4.4581560410       33.9372451198
  H        11.5853945083        6.0954265021       33.6012138087
  C        10.0772762224        6.2214505659       28.9850608572
  H        11.4874281410        5.0086499307       29.8571481242
  H        12.0599965091        6.5291881828       29.3857919798
  C        10.3629417335        5.7688185387       27.5336876902
  H         9.3600793549        5.5384680603       29.3535059089
  H         9.6564512392        7.2374866392       29.1003479770
  C         9.3870193181        5.0410905784       26.6534450238
  H        11.1764223401        5.0604003775       27.5932505377
  H        10.8729951291        6.6564372220       27.1447615653
  C         8.1962461889        5.8630346730       26.1917133075
  H        10.0320343346        4.7557613587       25.7847248243
  H         9.1250881560        4.0417246316       27.1600975250
  C         7.1700022680        5.0900041313       25.2997778978
  H         7.5575419370        6.1725714934       26.9992374667
  H         8.5455375275        6.6735246882       25.5936198754
  C         6.8385892006        3.7821014320       26.0626714297
  C         7.6469807625        4.3709541423       24.0238081769
  C         5.9709505901        6.0589699762       25.0880723607
  C         6.9331202855        2.6883243891       25.1954794821
  C         6.2547653003        3.4136202602       27.2543174945
  C         7.4539908486        3.0647728313       23.9515069990
  C         8.1626413206        4.9536945035       22.8671052478
  H         6.2877184398        6.8155419967       24.3409330959
  H         5.6935841572        6.4013828439       26.0008764633
  C         4.6929130084        5.4138866937       24.5941672199
  S         6.5562317166        1.1796219523       25.8947119439
  C         6.1152542939        2.0547728614       27.3638603036
  H         6.0223073041        4.2331951420       27.9476178317
  C         7.9452689100        2.3727192337       22.9007428706
  H         8.2283213070        6.0416538492       22.6888779324
  C         8.5716166052        4.2728392918       21.7816052494
  H         4.7368517075        4.9376839314       23.6328520530
  H         4.4552091948        4.6190563598       25.2446505437
  C         3.5145426712        6.3809827027       24.5208199341
  C         5.5964865199        1.3674492213       28.5963823198
  C         8.5142474942        2.9304684451       21.7076235190
  H         7.7575481649        1.3075892921       22.9153782502
  C         8.9569457837        4.7224033618       20.5344322653
  H         2.7829949053        5.9636590423       23.9153114125
  H         3.7810222752        7.3094853371       24.1806949913
  C         2.7639501733        6.6207938774       25.8525582504
  C         5.7032736125       -0.0187909956       28.9214548792
  C         5.1750942559        2.2101356039       29.7286326157
  C         8.9356058783        2.3093723422       20.4306740096
  C         9.2808086674        3.6118130015       19.7618417813
  S         9.1503519226        6.2693539140       19.8177154724
  H         1.9094312715        7.2661877576       25.6667168595
  H         3.4415329723        7.1989577898       26.5301245110
  C         2.2917569730        5.2780547726       26.4583519420
  N         6.0562498862       -0.9754390013       28.0244337694
  C         5.3415889045       -0.5287415574       30.1291458609
  C         4.8854397762        1.6588529494       30.9795205447
  H         5.2241102387        3.3207162490       29.5933158862
  C         7.7351804284        1.6744819021       19.6440151002
  C        10.2092777388        1.4906478526       20.6341965640
  C         9.6050699684        4.1092454681       18.4812308253
  C         9.6300831215        5.4705514201       18.3876033091
  H         1.8048107101        4.6749150230       25.6299293365
  H         3.1209705518        4.6193924383       26.8125498727
  C         1.3574734499        5.4074336965       27.7012150415
  S         6.2719503702       -2.3800231900       28.7998124449
  N         5.6793357031       -1.8517371658       30.2310033239
  C         4.8969732326        0.2418827675       31.1965689074
  H         4.5432716202        2.3793739136       31.6749249496
  H         7.5847806758        0.6518597330       20.0422528342
  H         8.0358537217        1.5204834848       18.5967502480
  C         6.4945778988        2.5520655346       19.5982493989
  H        10.5724110605        1.0920998463       19.6907742625
  H        10.1045114687        0.6977352084       21.3930610103
  C        11.4535803736        2.3216336095       21.1645413980
  H         9.9557199823        3.3452318238       17.7155410626
  C         9.8903975548        6.2314280502       17.1446164806
  H         0.5283762542        4.6656113057       27.6683004690
  H         0.6773711874        6.3208735504       27.4984577386
  C         2.0812790780        5.4493074820       29.0708090263
  C         4.6728185642       -0.3516541498       32.4490409902
  H         6.7005039982        3.5942328780       19.3485579892
  H         5.9946889474        2.6018872998       20.5318081428
  C         5.6347001261        1.9853298434       18.4679062282
  H        11.1548225784        3.1064680473       21.9666944261
  H        11.9031000308        2.9036867128       20.3545997185
  C        12.4531071948        1.5536801765       21.9353403011
  C        10.0183865323        7.6638961140       17.0012430433
  C        10.0295396731        5.4600931439       15.8820057417
  H         2.7437496889        4.6445408451       29.2793239445
  H         2.7313358166        6.3164719885       29.2221698076
  C         1.1503631484        5.5911211816       30.2700019921
  H         4.7708008895       -1.3775730671       32.3863268770
  C         4.4920982281        0.0334472307       33.7573438900
  H         5.8426275793        0.9351623167       18.2998793642
  H         6.0233846205        2.4922603666       17.5368425442
  C         4.1891772520        2.0680110086       18.6389298799
  H        11.9979070956        1.1454759813       22.8776207395
  H        12.7860743918        0.6619288180       21.4448967096
  C        13.6774542713        2.4305859874       22.1599184861
  N         9.7326125795        8.5796948375       18.0282967410
  C        10.3346561795        8.2838759047       15.8157881769
  C        10.3742742416        6.1407472566       14.7116827855
  H         9.8515080841        4.3896640882       15.8336274430
  H         1.7495460394        6.1902366701       31.0307692019
  H         0.2338756106        6.0883308993       29.9802829237
  H         0.8496505267        4.6218912027       30.6843826090
  S         4.3917001521        1.6790996249       34.2862602669
  C         4.5590770606       -1.0223082655       34.8490297701
  H         4.0197821486        2.7146231719       19.4538234544
  H         3.6590332145        2.7082271971       17.9016259697
  C         3.5448677653        0.6956073716       18.8935953937
  H        13.4805673429        3.3744515453       22.5464795503
  H        14.1793089832        2.7336889454       21.2356617776
  C        14.7274820596        1.6452777925       22.9425180417
  S         9.9201329388       10.0949964440       17.4809034671
  N        10.4369023082        9.6935529937       16.0013049299
  C        10.5738606885        7.6061622978       14.5835133280
  H        10.4996740575        5.5214111353       13.8075118203
  C         4.1506017818        0.9482334492       35.8737346090
  N         4.2948840132       -0.4255850510       36.0165951393
  O         4.9858213380       -2.1556005459       34.5905169647
  H         2.5138691940        1.0063352069       19.1316930782
  H         4.0292867491        0.2455842376       19.7426442981
  C         3.5030049139       -0.2606678492       17.7445432371
  H        14.2254766043        1.1418355178       23.7687076195
  H        15.1626575401        0.8828158160       22.2946664354
  C        15.7469406512        2.5354727954       23.5210457488
  C        10.8152811914        8.4372640898       13.4524046916
  S         3.7951334580        1.8979199158       37.2637326189
  C         4.2144440039       -1.2401445692       37.2007848972
  H         3.0628807354        0.1414762573       16.8426076572
  H         4.5311863333       -0.6233086824       17.4799306185
  C         2.7556180314       -1.5761593743       18.0464709323
  H        15.6109385559        2.6181859974       24.6339796828
  H        15.7655677375        3.5186967166       23.1020793419
  C        17.1368066539        1.9111398376       23.3326658054
  H        10.6611957340        9.5032396876       13.6393491820
  C        11.1807435596        8.1140020079       12.1743601923
  H         3.4842200307       -0.8178275369       37.8759318401
  H         3.8262699256       -2.1940937520       36.8813902420
  C         5.5870415565       -1.2385330730       37.8909472519
  H         1.6976535516       -1.2744623606       18.1431197900
  H         2.9455197977       -2.0071753839       19.0167280490
  C         2.9268534695       -2.6479431831       16.9443587112
  H        17.9686237086        2.5029603800       23.8138138219
  H        17.1774219367        0.9271635156       23.7544622348
  C        17.6949327099        1.8920535153       21.9150075167
  S        11.3625061936        6.5239390146       11.5846603775
  C        11.1086769327        9.1148382869       11.1628516038
  H         6.0619377917       -0.2575692528       37.6784328774
  H         5.4874298685       -1.2079037816       38.9779424900
  H         6.1589834590       -2.1701963230       37.6697182330
  H         2.0049611830       -3.1784678997       16.9687931600
  H         3.8330782281       -3.1307730338       16.9058072716
  H         2.8604431890       -2.0583298554       16.0024031877
  H        18.7852139826        1.8758839595       21.9805304238
  H        17.2625290175        2.7720380349       21.3632347814
  H        17.3913787102        1.0391144108       21.3868671741
  C        11.7157070369        7.3123484348       10.0312296603
  N        11.5319771131        8.6169397483       10.0057203170
  O        11.0572062495       10.3154788318       11.4632446798
  S        12.4203700617        6.5425414116        8.6772795026
  C        11.6686034518        9.3972589279        8.7938542667
  H        11.6895695792       10.4284041921        9.1202159453
  H        12.5574026008        9.2065277476        8.2162967141
  C        10.4052266126        9.1282088100        7.9851416407
  H        10.2264020834        9.8734309996        7.3413684953
  H        10.5385360242        8.2072518895        7.4549055346
  H         9.5508839304        8.9648468005        8.6826896195
  H         5.6763221390        1.7222268859       12.6455634569
  C         4.8526677610        2.3911045248       12.9359094193
  H         5.2198168559        3.4034747541       12.8090468301
  C         3.7588162717        2.2290059703       11.8847586181
  C         4.1554900938        2.2195636163       14.2940443646
  C         4.3091960311        2.3804204891       10.4382014413
  H         3.0864387178        3.0464140423       12.1233696061
  H         3.3234853982        1.2078930445       11.9976430371
  H         3.0050411003        2.1490629923       14.3173110312
  H         4.6747107716        2.9888912200       14.9054325180
  H         4.6205223664        1.2410262849       14.6601854208
  C         4.6867900471        1.0401824870        9.8156851581
  H         3.5015198583        2.7997813963        9.9196532081
  H         5.1137522177        3.1544560350       10.3630115357
  C         5.4631987863        1.0575898913        8.4952527721
  H         3.8190217887        0.4278280648        9.5912386978
  H         5.3028953864        0.4883312245       10.4744640812
  C         6.7648056103        1.9012601898        8.4312546168
  H         4.8074163156        1.3655411112        7.6634973761
  H         5.6333991661        0.0709469614        8.0918355392
  C         8.0883468016        1.4166835100        8.9691932277
  H         6.8965130278        2.1305023760        7.3850616910
  H         6.5306626040        2.8987262392        8.8647489780
  C         9.1125636293        2.5908768647        9.1493446648
  H         8.5067729722        0.5648452531        8.4920824172
  H         7.9145233611        0.9812811547        9.9920048557
  C         8.6005555008        3.8941329546        9.8436263058
  C         9.3772993001        3.3686242963        7.8926403360
  C        10.3884387546        2.1611112090        9.9359470499
  C         8.6529040542        5.0224144005        9.0178930032
  C         8.0413817864        4.2836687027       11.1226106802
  C         9.1274721132        4.6880701289        7.7530395945
  C         9.9314630472        2.7713438788        6.7594440555
  H         9.9822458780        1.7761630233       10.8627312253
  H        10.8608598012        1.3830670131        9.3770849228
  C        11.5213571016        3.1161308067       10.1965517801
  S         8.0993311824        6.4570983628        9.7259017601
  C         7.8859791685        5.6368430537       11.2997051828
  H         7.8334366263        3.5757733050       11.8876647265
  C         9.4324167317        5.2961269352        6.5752991986
  H        10.0060907016        1.7250859444        6.8751742014
  C        10.1319312701        3.3710925894        5.5122351432
  H        11.1354112776        4.0623268032       10.5456740464
  H        12.1063825726        3.2826757078        9.2959375077
  C        12.4445559340        2.5736929189       11.3109981566
  C         7.5311096089        6.3135704703       12.5876393053
  C         9.9787858342        4.6889162425        5.4153701231
  H         9.2956079495        6.3295412824        6.5568155304
  C        10.6155303132        2.9422232274        4.2804847573
  H        13.4987082834        2.7159658810       11.2408732316
  H        12.4452119551        1.4670813430       11.1730201976
  C        11.8582824754        3.0016092311       12.6751816623
  C         7.5776615292        7.7304166978       12.8076215123
  C         7.0857913099        5.4991566334       13.7392438321
  C        10.3907158701        5.3591815511        4.1684725078
  C        10.8063740300        4.0209176522        3.4889932738
  S        11.0218310350        1.3731217771        3.5562416442
  H        12.1165904020        3.9864407611       13.0293839219
  H        10.7654801213        3.1795300624       12.5520827001
  C        12.2657422006        1.9108804478       13.6978146676
  N         7.9000237160        8.7429505141       11.8361162932
  C         7.2864175609        8.3250938624       13.9734319266
  C         6.7764804417        6.1360842438       14.9233025794
  H         6.8289257687        4.5347986836       13.7559413749
  C        11.6303054204        6.3366619404        4.3756685484
  C         9.2464102724        6.1373006649        3.5421176386
  C        11.3727756446        3.6984431484        2.2657372168
  C        11.3965898934        2.2637180313        2.1438646822
  H        13.0156998392        1.2742561741       13.3311465761
  H        11.6385598260        1.1396381203       13.9132029286
  C        12.8842918458        2.5308515460       14.9351214419
  S         7.8936061757       10.2063509204       12.5244503918
  N         7.3448050308        9.7183631444       14.0114733498
  C         6.9533735545        7.5963756446       15.1588038735
  H         6.4414087434        5.5598005552       15.8251435643
  H        11.3471771329        7.1701413914        5.0294758091
  H        12.0028863322        6.7354525655        3.4446844346
  C        12.7888948166        5.6225076041        5.0078926964
  H         8.8306972313        6.8302424335        4.2871656069
  H         9.5327698251        6.6823341708        2.6449208268
  C         8.0306795796        5.3018617022        3.1636223359
  H        11.6667459439        4.4574136767        1.5832625345
  C        11.6836224455        1.5592166140        0.9013243747
  H        13.8241186533        2.9022604020       14.7103522091
  H        12.2157783778        3.3181924213       15.1232437919
  C        12.9891700471        1.6085268815       16.2139221071
  C         6.6403344966        8.2709316802       16.3747788630
  H        12.4369201752        5.3933634905        6.0004020160
  H        12.9617727010        4.6235810947        4.5765886594
  C        14.0708064567        6.5997566848        5.0213969713
  H         7.8878780394        4.6624201950        4.0125857600
  H         8.1982482256        4.7455624759        2.2660451959
  C         6.7761792605        6.1085841409        2.9339716216
  C        11.8322074571        0.1611614319        0.7162638285
  C        11.5944374528        2.3211554323       -0.4018692422
  H        13.9715792299        1.1586426414       16.1629836263
  H        12.2322251395        0.8725599090       16.1283661286
  C        12.8933293118        2.4474815215       17.5123609344
  H         6.7190693626        9.2897762834       16.3626381327
  C         6.3440561702        7.8343223023       17.6469156716
  H        13.9799939868        7.2642459875        5.8459353361
  H        14.1204472717        7.3062016567        4.1446759541
  C        15.4179074373        5.8911076662        5.0848521336
  H         6.7317563879        6.7197362139        3.8087947188
  H         7.0801450518        6.7620255646        2.1029524250
  C         5.4464846895        5.3150059225        2.5913750388
  N        11.6676293392       -0.7513035479        1.7527588909
  C        11.9580453920       -0.4951842428       -0.5361603985
  C        11.9944718255        1.6783836284       -1.6137944204
  H        11.3671943282        3.3920966348       -0.5021804219
  H        11.9332417167        2.1905401529       18.0170314624
  H        12.8569600721        3.5672891066       17.3312514046
  H        13.8223200444        2.4366390380       18.1244932620
  S         6.1081664713        6.3062821226       18.2431292998
  C         6.3030797781        8.9626649094       18.7234896039
  H        15.5063764952        5.0892275828        4.3729221649
  H        16.1616847984        6.6187742200        4.8356749239
  C        15.7548370293        5.3268148342        6.4975288847
  H         5.0938104330        4.8006450930        3.5013915096
  H         5.6212411009        4.5879795635        1.7798803354
  C         4.3439404943        6.1884714658        1.9705537800
  S        11.7788146928       -2.2041052116        1.1397039391
  N        11.9138582488       -1.8864536567       -0.4336257031
  C        12.2138258439        0.2258848263       -1.7147468277
  H        11.8957349069        2.1927602206       -2.5517138177
  C         5.9441961653        7.0527788484       19.8418810485
  N         6.2051335005        8.3838631517       19.9408514875
  O         6.4000424801       10.1892429622       18.4431106295
  H        15.4556499062        5.9631735709        7.3294944079
  H        15.1593665393        4.3726197453        6.5559573129
  C        17.1604393237        4.8321630506        6.5566528780
  H         4.6031451576        6.4347704318        0.9049125856
  H         3.4526657146        5.5698271080        2.0200029246
  C         4.0462296652        7.3632366127        2.9133446241
  C        12.5473083300       -0.5074617070       -2.8703051721
  S         5.6410790764        6.1080330704       21.2784498771
  C         6.3177822186        9.1442522063       21.1737418987
  H        17.2147976477        4.1494847655        7.3945983036
  H        17.4084048145        4.3511401723        5.5993227788
  C        18.1076831358        6.0588285081        6.7904333369
  H         4.6908810249        7.3904657424        3.8382795956
  H         2.9769870966        7.3897089618        3.1955789413
  C         4.3984414169        8.6644580174        2.3078016320
  H        12.2517494542       -1.5398312443       -2.8020727022
  C        13.0590952557       -0.1460933910       -4.0588194626
  H         5.8294295162        8.6505389513       22.0465149658
  H         5.6924102584        9.9919778195       21.1036076532
  C         7.7764003647        9.5357769005       21.4042244701
  H        17.7934634537        6.4625851904        7.7638668063
  H        18.0765149538        6.7923838660        5.9334086115
  C        19.5290320635        5.6164174047        6.9105664886
  H         4.6221923192        9.3989740122        3.0473394942
  H         5.2472869779        8.5860228200        1.6020736658
  C         3.4087777810        9.4545498133        1.4443480674
  S        13.4996616174        1.4381766705       -4.4404773624
  C        13.3293179913       -1.2423579884       -5.0058073794
  H         8.0273955245        9.1195420327       22.3573596042
  H         7.8982763011       10.6191711749       21.4435289144
  H         8.5556868262        9.1526450183       20.6835596654
  H        19.8933574716        4.9413280547        6.1913594597
  H        20.1518568430        6.5335893474        6.8082050211
  H        19.6501382734        5.1342514708        7.8578256065
  H         3.9308589802       10.1457869979        0.8271005492
  H         2.9027647347        8.8051766319        0.7736988932
  H         2.7407224291       10.0583179103        1.9909456581
  C        14.0666810202        0.7016165326       -5.9904520134
  N        13.8101045742       -0.6379845936       -6.1251691583
  O        13.0743317295       -2.4080528252       -4.7909020801
  S        14.7484990977        1.5509225706       -7.3631147794
  C        14.1057111778       -1.4280769775       -7.2977926854
  H        14.3633972794       -2.4237170914       -6.9923331122
  H        14.9800612358       -1.0292037249       -7.8229300846
  C        13.0093405458       -1.5491224544       -8.3180016039
  H        11.9968994266       -1.6273676172       -7.8316903475
  H        13.1301414616       -2.4188613506       -8.9472762113
  H        12.9795663548       -0.6873055958       -9.0244662861
