352
 i =   131200, time =    65600.000, E =        99.9963947725
  H        10.4557366383        4.9382909908       30.9165803583
  C        11.3121695127        5.5649342601       31.3090990649
  H        11.0417745851        6.6323005503       31.3774432521
  C        12.3819929680        5.4931391158       30.2177177266
  C        11.8533679916        5.1480782088       32.6805876434
  C        12.0729170419        4.4166099287       29.2046632049
  H        12.3134672472        6.4393172689       29.6706274268
  H        13.4001348384        5.4324677239       30.5560997102
  H        12.4559651866        4.2718449714       32.6520600578
  H        12.3793962717        5.9481720884       33.2275001635
  H        11.0138691259        4.9366822162       33.2778181546
  C        12.1328611874        4.9688817523       27.7678969755
  H        11.1000673317        4.1065780278       29.3395891418
  H        12.8438668823        3.6352048248       29.2975222363
  C        10.9129605367        5.8263356997       27.3195858652
  H        13.0944477641        5.4666830939       27.7059542457
  H        12.3523668480        4.2052273679       27.0541986687
  C         9.8972677225        4.9997187718       26.6279731874
  H        11.1019194294        6.7428297547       26.7561328720
  H        10.5432413150        6.2093917348       28.2805467444
  C         8.7159599462        5.8798705208       26.2548504262
  H        10.3845672170        4.5187691717       25.7771186574
  H         9.6573643933        4.2517532488       27.4181272488
  C         7.5520898987        5.1354431152       25.5474132010
  H         8.2986528775        6.3311997996       27.2198512641
  H         9.0894949078        6.6419747507       25.5108365164
  C         7.1786875947        3.7852687014       26.2036870004
  C         8.0636092128        4.4432366760       24.3398421103
  C         6.2822693143        6.1109317359       25.3258404597
  C         7.4667269624        2.6696837342       25.4642872557
  C         6.7275015686        3.4563148841       27.5077993701
  C         7.9882422464        3.0660533191       24.2597622649
  C         8.5534533204        5.0494935644       23.2195929136
  H         6.6067194208        6.9086156411       24.6255260710
  H         6.0222456664        6.5273468026       26.2575784434
  C         5.0347768429        5.3808641044       24.7467247348
  S         7.1795440302        1.1509667058       26.2964875566
  C         6.6351340451        2.1028675933       27.6691451550
  H         6.4919588055        4.2031738550       28.2330517666
  C         8.4797253118        2.5104065223       23.1299944664
  H         8.4099974402        6.0937524681       23.2581124924
  C         8.9210655839        4.4980346960       22.0740949602
  H         5.3782333140        5.0626226730       23.7227056739
  H         4.8780972495        4.4456083934       25.2753033071
  C         3.7976515667        6.3115615898       24.5416124487
  C         6.2217334057        1.4391414717       28.9341624845
  C         9.0588269510        3.1563843211       21.9761846191
  H         8.5580657979        1.4830461514       23.0488565473
  C         9.2655744373        4.9284806636       20.8188825189
  H         3.1028454947        5.7817231203       23.8487006647
  H         4.0795056288        7.2107460208       23.9693116964
  C         3.1475719693        6.6435368298       25.9044861006
  C         6.1119592413        0.0016347282       29.1362416433
  C         5.7253672474        2.2771406046       30.0686267375
  C         9.3157142774        2.4570303985       20.6883547872
  C         9.4671741522        3.8564292444       19.9378954249
  S         9.4410124108        6.4552865843       20.0755595695
  H         2.4325227587        7.5197833759       25.7015940983
  H         3.8804905207        7.1465284078       26.5148456023
  C         2.5166338552        5.3891294901       26.4537710315
  N         6.1725229559       -0.9907909137       28.1284096421
  C         5.7123747331       -0.4860796923       30.3490227894
  C         5.5374058216        1.7663854316       31.3038060844
  H         5.7935865520        3.3226309474       29.9399094729
  C         8.1436207102        1.5535878900       20.2254754107
  C        10.5753696562        1.6045448176       20.8550751801
  C         9.6791572275        4.2763746485       18.6604317260
  C         9.7297343267        5.6705705425       18.5726919934
  H         1.9959080269        4.7623839487       25.7307642802
  H         3.2616631445        4.6974259729       26.8236396876
  C         1.4790586944        5.7679199051       27.5036330008
  S         5.8957189470       -2.4042954652       28.7979670013
  N         5.5699903230       -1.8744185639       30.3291417141
  C         5.5349782890        0.2998154016       31.5280323253
  H         5.3866151627        2.4647157514       32.0749650037
  H         7.8374958241        0.7250923125       20.8795411598
  H         8.4263544654        1.0231574947       19.2836056302
  C         6.9108408704        2.3824146603       19.9121409287
  H        10.7485703710        0.9933989658       19.9888712853
  H        10.4253779315        0.8524104860       21.5846542823
  C        11.8300474300        2.4134842830       21.2317846051
  H         9.7309244453        3.6381005565       17.8603563943
  C        10.0134047801        6.4688650277       17.3316896392
  H         0.7198319412        4.9462655607       27.6049092707
  H         1.0561839106        6.7050010582       27.1903486214
  C         2.0747636626        6.0882020909       28.8696537847
  C         5.3029408909       -0.4119798158       32.7421111427
  H         7.1339918928        3.2333665473       19.2392979372
  H         6.5934374312        2.8950904987       20.8068367774
  C         5.6600499492        1.6117660922       19.3944968462
  H        11.7479353120        2.9031014887       22.1761574093
  H        11.9024275043        3.2445978591       20.5449768679
  C        13.1754318809        1.7373758686       21.2445766186
  C         9.9432559855        7.8563168984       17.1888052405
  C        10.2400588673        5.7370743745       16.0736616148
  H         2.7128402245        6.9685131944       28.6812990582
  H         1.3088804990        6.3198225567       29.5638144817
  C         2.9177627312        5.0431769166       29.5034485320
  H         5.3010286435       -1.5079213430       32.6287295172
  C         4.9576112487       -0.0764343511       34.0656227162
  H         5.2974258838        1.0331060295       20.3078077064
  H         5.9640305719        0.8665395290       18.7460188046
  C         4.5210061569        2.4947734655       18.9664956241
  H        13.1062715341        1.0695405032       22.0134451880
  H        13.2665570333        1.1690074914       20.3341692752
  C        14.3071239938        2.7310173006       21.4419818898
  N         9.7833173520        8.6651689005       18.2128543966
  C        10.1191836015        8.4982849578       15.9894570903
  C        10.4099575701        6.3915266591       14.8605132003
  H        10.2212832394        4.6687318839       16.0522724632
  H         3.3812304869        5.3308011995       30.4736762337
  H         2.2081437080        4.2582274862       29.7158071077
  H         3.6308832948        4.5737120187       28.8628578856
  S         4.6705338449        1.4913516485       34.6344120363
  C         4.7882116204       -1.1656645427       35.0123405294
  H         4.4860268473        3.3340816133       19.6845075310
  H         4.7308923887        3.0659582264       18.0306123683
  C         3.2911790614        1.6972119470       18.7138314535
  H        14.2288139789        3.0716814366       22.4317806096
  H        14.2941775651        3.5743474830       20.8495149241
  C        15.7348719238        2.1128143790       21.2204828143
  S         9.5957169904       10.1676329598       17.6789206779
  N        10.0380498009        9.8910490758       16.1253803019
  C        10.4924905923        7.8489310437       14.7880172432
  H        10.8944925753        5.8352019353       14.0204798559
  C         4.4060791862        0.7105120661       36.2463833614
  N         4.4684223312       -0.6352732171       36.2837690248
  O         5.0129242039       -2.3243870923       34.7470817729
  H         2.4586735368        2.3239912669       18.6819631783
  H         2.9634407374        1.0967177427       19.6523945185
  C         3.4096983096        0.6770806302       17.5440275690
  H        15.7890486902        0.9883572103       21.6657856656
  H        15.8688648026        1.9183393172       20.1678967123
  C        16.8098406372        2.9083375812       21.8285694597
  C        10.6348646635        8.6386589212       13.6140581213
  S         4.1189388129        1.6366277579       37.7482189821
  C         4.4342328704       -1.4642426142       37.5036985419
  H         3.2242345768        1.3267080042       16.6304217432
  H         4.4210602298        0.1659842250       17.5110084465
  C         2.3666521013       -0.4403877253       17.6266133200
  H        16.3715010290        3.7004412339       22.4917004292
  H        17.3410108932        3.4577899776       21.0728284864
  C        17.7305671410        2.0479965336       22.8089035897
  H        10.3168949679        9.6876251486       13.7190720842
  C        11.2702210447        8.4089200969       12.4138765599
  H         3.9344565525       -1.0491441203       38.3227253474
  H         3.8319855998       -2.3695069789       37.2706590131
  C         5.8242907425       -1.7663376165       38.0044248924
  H         1.3720578355       -0.0235653372       17.6445103010
  H         2.4661075132       -1.0443769236       18.5265969475
  C         2.4977915728       -1.3899357228       16.4336180997
  H        17.8439114271        1.0595053868       22.3734023238
  H        18.6267091140        2.5549024160       23.0403433749
  C        17.0203431229        1.8007837717       24.1335941029
  S        11.8537843374        6.9150646225       11.7395479757
  C        11.3894310748        9.5437905842       11.4615834678
  H         6.4666098297       -1.6450481919       37.1427223441
  H         6.0650695163       -1.0429937304       38.7738365964
  H         5.9193202551       -2.7996631420       38.4107577278
  H         2.3245778007       -0.8160883375       15.4400570733
  H         1.7724893049       -2.2133896720       16.5992516775
  H         3.4881674319       -1.7869359052       16.4692019352
  H        16.0364742258        2.1288524513       23.9949142295
  H        17.5346018180        2.3655052213       24.8405314817
  H        17.1299022797        0.7543432528       24.4314613662
  C        12.1839721652        7.7550594695       10.2197721896
  N        11.9700511066        9.1245625919       10.3299539565
  O        10.9181612636       10.6743859783       11.5972072701
  S        13.2096085333        7.3387342062        8.8941528118
  C        11.9476260429       10.0072290705        9.1058093651
  H        12.1934886923       11.0478040264        9.3483693477
  H        12.7710499059        9.8480307233        8.4535549005
  C        10.6279203376        9.8104049290        8.2876467948
  H        10.6428072090       10.2608540395        7.2854257513
  H        10.5067978240        8.7354976220        8.0841144993
  H         9.7566332451        9.9580026981        8.8656414944
  H         4.2995507213        1.4798664077       12.2461295824
  C         3.8165012778        2.4150756724       12.3987502126
  H         4.5668133793        3.2606596711       12.4046504733
  C         2.9064998937        2.5019929978       11.2034803057
  C         2.9945566569        2.3644574469       13.6717730666
  C         3.7904463387        2.7603064080        9.9547016742
  H         2.2820119424        3.3879495335       11.1568006178
  H         2.2068415511        1.6338767614       11.1685133454
  H         3.6008736856        2.4447067141       14.5539249126
  H         2.4108343409        1.4349462680       13.8161741934
  H         2.3368564488        3.3124433319       13.6959786211
  C         4.8100327249        1.5735693987        9.7133958613
  H         3.0808657213        2.8919255605        9.1624421788
  H         4.2679525703        3.7325417805       10.0333465222
  C         5.3823023315        1.5730206309        8.3790484177
  H         4.3251798161        0.6185785952        9.9063161708
  H         5.5821858993        1.7550840353       10.4649325885
  C         6.5804642540        2.4947113095        8.2386326708
  H         4.6869750559        1.7452324375        7.5770825324
  H         5.5577086129        0.5833763146        8.0566441144
  C         7.8885060036        1.8775730761        8.7854077823
  H         6.6019692522        2.6220763964        7.1780361388
  H         6.3284483184        3.3709391874        8.7640155485
  C         9.0348283876        2.8809266494        9.0584645258
  H         8.3250590365        1.0920512938        8.1742523349
  H         7.6642038867        1.3330497862        9.7109123474
  C         8.5996298034        4.1900425906        9.7150494333
  C         9.4562783033        3.5799724566        7.8233830389
  C        10.3090914502        2.2437173070        9.8596103389
  C         8.9650266675        5.3480694729        8.9877588178
  C         8.0806901362        4.5680853789       10.9551188004
  C         9.4257141062        4.9277801823        7.7269190237
  C         9.9606265033        2.9966937827        6.6602701516
  H         9.8847194700        1.9480704232       10.8035645196
  H        10.5617872476        1.2468688232        9.4784838786
  C        11.4365524198        3.2810964766       10.1053156126
  S         8.6189682299        6.8826796032        9.6848060939
  C         8.0923837512        5.9338841583       11.0905992424
  H         7.8857905968        3.7987217810       11.6373204868
  C         9.7516027951        5.5645325536        6.5758300576
  H        10.1241485397        1.9299006562        6.5130434326
  C        10.3527185966        3.6916374948        5.5232190593
  H        11.0288149294        4.3175340808       10.2945928281
  H        12.0137393691        3.4657434029        9.1362785500
  C        12.5276662402        2.9232770487       11.2129925917
  C         7.6973549767        6.5565053569       12.4052470062
  C        10.2314651980        5.0173689045        5.4192224806
  H         9.5641334705        6.5930544221        6.7100819986
  C        10.7981852790        3.3128143189        4.2904294654
  H        13.4738423628        3.5167382487       11.1081354867
  H        12.8157377465        1.8911612730       11.2090560792
  C        11.9135252894        3.3177084021       12.6000101289
  C         7.7598639076        7.9712392977       12.6757647025
  C         7.2848132146        5.6554763064       13.5546712574
  C        10.6642574241        5.7529531045        4.2311659236
  C        10.9596567682        4.4421534348        3.4736128599
  S        11.2016533408        1.8026869514        3.5414014718
  H        12.3569319366        4.2982905312       12.9616186846
  H        10.8386231402        3.6542268800       12.4670179260
  C        11.8518667326        2.1738894810       13.6251469477
  N         7.8619919514        8.9737726097       11.7325557712
  C         7.2936715827        8.4995255651       13.8654906666
  C         6.9397594453        6.2448786817       14.7304780430
  H         7.1098588119        4.6034067928       13.5021529294
  C        11.9233192478        6.6486076443        4.4515086426
  C         9.3403311429        6.4212308218        3.5674836650
  C        11.3445433823        4.0675763606        2.1703451467
  C        11.5183989464        2.7307360613        2.0988935748
  H        12.4904687603        1.3073917341       13.3327669543
  H        10.8320508261        1.8889404593       13.6330766318
  C        12.3326585638        2.6448664523       14.9075575695
  S         7.9556588506       10.4399134471       12.4657616234
  N         7.4825759413        9.8482975408       13.9639864115
  C         7.0376877914        7.7449019389       15.0000896785
  H         6.6895574414        5.5542859415       15.4797634023
  H        11.7499805718        7.3445031031        5.3036206405
  H        12.0699805096        7.3009519462        3.6330097554
  C        13.1972435478        5.8504399897        4.7384555725
  H         8.8260488224        6.9947897740        4.2748921327
  H         9.7015019780        7.0744693353        2.7655138154
  C         8.2715936249        5.4827268146        2.9707077935
  H        11.3825839861        4.8522487686        1.3923286177
  C        11.9707703030        1.9777515924        0.8647235345
  H        13.4187500578        2.8668698312       14.8313459467
  H        11.9251215869        3.6178650443       15.2331348315
  C        12.1050726249        1.5954208826       15.9298527021
  C         6.8224712080        8.3071720951       16.2875453534
  H        12.9822411853        5.2862989407        5.6399068504
  H        13.4438782872        5.2029341483        3.9055517361
  C        14.4035771653        6.7630249864        4.9498739292
  H         7.9816407818        4.7273652721        3.7087272855
  H         8.6662550598        4.9244521900        2.1548493592
  C         6.9963211480        6.1860989338        2.5808332054
  C        11.9945422492        0.5183388933        0.7780200706
  C        12.2092454249        2.7801769868       -0.3399234133
  H        12.5325620157        0.6520142136       15.6737432625
  H        11.0441528180        1.4809578501       16.1474550126
  C        12.6481892717        2.1411342267       17.2704439781
  H         6.8535410535        9.3632553376       16.1950847710
  C         6.4638831304        7.8538449187       17.5461129661
  H        14.1523440078        7.3667949950        5.7959052076
  H        14.5097352309        7.3603005379        4.1020232358
  C        15.6858422792        6.0554338135        5.2759848617
  H         6.7006216331        6.7742907317        3.4694220516
  H         7.1274028656        6.8501396125        1.7776218996
  C         5.9397885066        5.2796353620        2.2812249180
  N        11.6365479108       -0.4233822068        1.7642454670
  C        12.3122698574       -0.0427324229       -0.4120578467
  C        12.4339058838        2.1365966988       -1.5449191090
  H        12.2994088693        3.9039652482       -0.2376820937
  H        12.5090775901        3.2052446185       17.3937728096
  H        13.7179690221        1.9678962026       17.3594330789
  H        12.0253301816        1.6476383842       18.0857475203
  S         6.3178346012        6.2200464081       18.0211114956
  C         6.1702996510        8.8540066676       18.5739878593
  H        15.5021275638        5.0212647754        5.4567359031
  H        16.3764580960        6.0531926158        4.4398043042
  C        16.3498693333        6.6001555159        6.5553811024
  H         5.3132160692        5.2550234879        3.1757536327
  H         6.3480133817        4.2929713560        2.0870111082
  C         4.8649775927        5.5805789620        1.1910011440
  S        11.8483480634       -1.8928625387        1.1434478961
  N        12.3542297727       -1.4576171163       -0.3875957131
  C        12.4872657783        0.6715840125       -1.6131885784
  H        12.5822492323        2.6955172488       -2.5185546735
  C         5.9701113608        6.8860525831       19.6043322123
  N         5.9395300836        8.2586150695       19.7175555645
  O         6.2635442718       10.0603201221       18.3133072175
  H        17.0390756030        7.2767878899        6.0963415446
  H        15.7057530974        7.2294263731        7.2247755158
  C        17.3297465148        5.6384204488        7.3585168500
  H         5.3009492693        5.5249349380        0.1766585940
  H         4.1230763588        4.7698762720        1.1934172244
  C         4.2084896859        6.9059775857        1.4474432784
  C        12.6891228686       -0.1505123948       -2.8034656136
  S         5.5004478509        5.8851780737       21.0257848637
  C         5.7896753347        8.9513383490       20.9529691294
  H        17.0363686444        5.7341288877        8.4210843254
  H        17.1770167459        4.5785743230        7.0273256778
  C        18.7778913003        6.0650045185        7.1499559023
  H         4.4490592145        7.3262021627        2.4465589424
  H         3.1339585130        6.7314268610        1.3726788973
  C         4.6291030442        7.9798768202        0.4440466075
  H        12.3377146218       -1.1443409104       -2.7465614529
  C        13.3129246810        0.0697069324       -3.9826275370
  H         5.3461148799        8.4138722460       21.8524233254
  H         5.2554544977        9.8507040095       20.8157922841
  C         7.1862593173        9.4329979711       21.3968385647
  H        19.3354628623        5.4789334402        7.8361852031
  H        18.9077170564        7.1351690232        7.2707472019
  C        19.3203372162        5.7326148811        5.7995738528
  H         5.6514892869        8.1202166020        0.4372567108
  H         4.3403229457        7.6126027792       -0.5041600264
  C         3.8488860129        9.2296494833        0.6286879177
  S        13.8260631851        1.6371430325       -4.5159516304
  C        13.3923497796       -1.0806213224       -4.9629318489
  H         8.0014790247        8.6863648361       21.1819474546
  H         7.1955121468        9.6307013219       22.5073936767
  H         7.5346239395       10.3232178091       20.9308800739
  H        19.7618823822        4.7689507010        5.7755997978
  H        18.5236365976        5.5972905299        5.0013610246
  H        20.1496957570        6.3309697752        5.4459453479
  H         4.1954233684        9.6708937869        1.5053421127
  H         4.0432818282        9.8826864765       -0.2595931456
  H         2.7311758361        9.0199108572        0.7054916818
  C        14.1059523160        0.8101452460       -6.0506314628
  N        13.9486514710       -0.5508308035       -6.0697827890
  O        12.9786637791       -2.1685300689       -4.7623639086
  S        15.1522660981        1.5947403783       -7.1755137402
  C        14.1575126694       -1.3564771869       -7.2417374176
  H        14.5016489385       -2.3206205635       -7.0338867890
  H        14.9793674155       -0.8982653760       -7.8304845367
  C        13.0134398327       -1.3075955691       -8.1704191977
  H        12.1527345263       -1.7447566583       -7.7255982645
  H        13.2898897015       -1.8843285130       -9.0135482183
  H        12.7920401055       -0.2629435392       -8.3790718700
