352
 i =    54800, time =    27400.000, E =        99.5257317004
  H         9.3672962210        4.9685896362       32.5174196925
  C        10.2536150320        5.4773260837       32.7621279558
  H         9.9335107108        6.2389806556       33.4789793020
  C        10.7953214219        6.2253023211       31.5389762273
  C        11.2657976325        4.5867549815       33.5035367151
  C        11.1245765059        5.5179692577       30.2097236687
  H        10.1780957205        7.0440671920       31.3296707842
  H        11.6900165899        6.6366288639       31.8857782258
  H        12.3563539820        4.7343652607       33.2496016040
  H        11.2927980569        4.7792914653       34.5806808330
  H        10.9340561495        3.5543631443       33.5122610954
  C        10.0154872216        5.4530078358       29.1435630461
  H        11.6087094001        4.6049565083       30.3743150537
  H        11.9376339067        6.0514764781       29.6351340354
  C        10.4375207021        5.1530803440       27.6754071264
  H         9.6078384212        4.4637296457       29.4827067761
  H         9.1542063365        6.1640094881       29.2204081543
  C         9.3633830071        4.5523291649       26.7522409321
  H        11.2294042526        4.4485938221       27.8042799007
  H        10.8079258003        6.0242005360       27.2208298955
  C         8.3683304835        5.5980290045       26.4187643094
  H         9.8454161267        4.0457583123       25.9400743544
  H         8.8572850182        3.8834473657       27.3989569060
  C         7.1569733550        4.9815593535       25.6831169030
  H         8.0748962458        6.0242124098       27.2846150600
  H         8.8068137673        6.3688287861       25.8127928883
  C         6.7187191798        3.6417866384       26.3306449397
  C         7.5783307309        4.2540214286       24.4039834281
  C         5.9894150542        5.9015974400       25.6345908591
  C         6.9106638294        2.5551596983       25.5536806514
  C         6.1804160711        3.2497093307       27.5360356271
  C         7.5104921375        2.8711620185       24.3210521478
  C         8.0740933983        4.8243536710       23.2118472431
  H         6.2891584507        6.7994834292       25.2988546202
  H         5.6813496742        6.1081790882       26.5706147236
  C         4.7071751223        5.3955912729       24.9315368826
  S         6.4377256612        1.0410278377       26.2613355548
  C         5.9807625263        1.9127824298       27.6177854352
  H         6.0177284849        3.9464954811       28.3054328042
  C         7.8777495142        2.1843581104       23.2333577020
  H         8.2133911057        5.9090779446       23.1764876229
  C         8.3636172598        4.1116993271       22.0834144373
  H         4.9148963734        5.3202150240       23.8406722569
  H         4.3478662506        4.3710832726       25.3510137451
  C         3.5477958143        6.4537859670       25.0489216113
  C         5.6106794659        1.1559058496       28.9028643885
  C         8.3184755469        2.7578754734       22.0182277854
  H         7.6962367744        1.1572700850       23.2709285778
  C         8.7151621510        4.4182439715       20.7863961831
  H         2.8597776199        6.4357165307       24.1920677595
  H         3.9509486589        7.5021665647       25.0085645249
  C         2.8165918038        6.4885732245       26.3767646780
  C         5.6391760232       -0.2105006418       29.2012128935
  C         5.3197593539        2.0713872768       30.0266116613
  C         8.6837326291        2.0294258794       20.7832810106
  C         8.9900138973        3.3135223412       20.0149092045
  S         8.9891705647        5.9451501346       19.9673986229
  H         2.0721695116        7.3296850235       26.5653712384
  H         3.5073086527        6.5750324831       27.2217765622
  C         1.8282313945        5.2882970522       26.5940150027
  N         5.9315801644       -1.1768246280       28.2851491756
  C         5.5341598899       -0.7344599772       30.4849381754
  C         5.1300688046        1.5340178951       31.3247830526
  H         5.0608173275        3.0974694686       29.8492748352
  C         7.5353201665        1.1927611607       20.1627599338
  C         9.9806709238        1.1520492350       20.8994987856
  C         9.3316745779        3.6614588602       18.6717329766
  C         9.3700351268        5.0285199531       18.5003928109
  H         1.2298742968        5.1130826759       25.7191243712
  H         2.2932783736        4.3349301299       26.7022492443
  C         1.0666524737        5.3473246739       27.8840536009
  S         6.1476723785       -2.6050671698       29.0216611055
  N         5.6654077531       -2.1308650312       30.5016930058
  C         5.2842750786        0.0778331540       31.6100826373
  H         4.7506765148        2.1542443021       32.0622847032
  H         7.2391999023        0.2629676296       20.6637498024
  H         7.8727461550        0.8950667409       19.1741441878
  C         6.2624307540        2.0559470938       19.9152876377
  H        10.0350685866        0.6840571057       19.9307300930
  H         9.8198925608        0.3785623956       21.6421736376
  C        11.2361417977        1.8608728528       21.0889491368
  H         9.5090405788        2.8316964736       17.9358538630
  C         9.6610809153        5.6919783680       17.1759926336
  H         0.4658364604        4.4706712498       27.8281522730
  H         0.3417196154        6.1390686328       27.8322199766
  C         1.9224674719        5.3617334194       29.1607418164
  C         5.1430713350       -0.5939620454       32.8538221149
  H         6.4213101126        3.1357992136       20.0405665817
  H         5.5162154645        1.7413239063       20.6145296231
  C         5.6126584567        1.7818903621       18.5723209190
  H        11.2133552341        2.4679414582       21.9612954287
  H        11.3319544709        2.5684892081       20.2645506184
  C        12.4802419089        0.8992844787       21.1801616116
  C         9.6942500869        7.1006550238       16.9531393411
  C         9.9847231151        4.8948713249       15.9721622359
  H         2.6789314105        4.6120514386       29.1125890355
  H         2.4525157354        6.3250118114       29.2528045199
  C         1.0677336638        5.3365311831       30.4514456486
  H         5.3513559082       -1.6345828692       32.8899965101
  C         4.8535821027       -0.2205436698       34.1035618955
  H         5.5303416941        0.7556906921       18.4481418939
  H         6.0854811704        2.2627053006       17.7538134219
  C         4.1563343711        2.3067615651       18.5053947917
  H        12.2625381256        0.2031048853       21.9327973539
  H        12.6646012916        0.3704781244       20.2259730995
  C        13.6718674615        1.7885252749       21.4271095727
  N         9.4023017514        8.0481769661       17.9269787725
  C         9.9458882144        7.6911042867       15.7821389119
  C        10.2646512583        5.5140288846       14.7715741874
  H         9.9618511216        3.7958724747       16.0890863404
  H         1.8448403622        5.3442657049       31.1891077037
  H         0.4151513122        6.1356673110       30.5718196518
  H         0.5199686971        4.3820727348       30.6057463188
  S         4.4543299087        1.4211326341       34.5937369169
  C         4.6234528512       -1.2352394277       35.1140013555
  H         3.9335485080        2.9909857606       19.3043252713
  H         3.9621997549        2.8045016177       17.5486200698
  C         3.2366295998        1.0829873906       18.7847381716
  H        13.5278014626        2.2669342406       22.4015966782
  H        13.7176646722        2.6799822978       20.7357551669
  C        15.0152774891        1.0297189305       21.4440661444
  S         9.2991404298        9.5618955960       17.3614818883
  N         9.7842926180        9.1023462443       15.8778479398
  C        10.1980232526        6.9696460865       14.5948944171
  H        10.6509420507        4.8920001483       13.9458457176
  C         4.1439769432        0.7196556842       36.1539389867
  N         4.0110820897       -0.6230831881       36.1653788951
  O         4.7378080440       -2.4763732353       34.9118199978
  H         2.2882316781        1.5117481933       18.9711510416
  H         3.5534914180        0.4713479187       19.6319532137
  C         3.0252978904        0.0573026016       17.6037917679
  H        14.8356344317        0.1003911619       22.0369163302
  H        15.3460188138        0.7549988767       20.4442971373
  C        16.1895955883        1.8283423899       22.0190564926
  C        10.4965475710        7.6739400237       13.3944577092
  S         3.2467579804        1.5970263974       37.4554030647
  C         3.7610089187       -1.3151735150       37.4482422433
  H         2.6407104045        0.5016948650       16.7581805499
  H         4.0089597894       -0.2640322389       17.2223470799
  C         2.0505999224       -1.0388031789       18.0242264571
  H        15.7082982990        2.6754008010       22.5793578365
  H        16.6813831811        2.3033078889       21.1210643193
  C        17.1969979051        1.1254806613       22.9101602459
  H        10.3214656296        8.7721159846       13.6032507446
  C        11.0572025549        7.3842903767       12.1807767093
  H         3.0151368993       -0.8599575857       38.0943556591
  H         3.3625795634       -2.3302426363       37.2930387451
  C         5.1093124712       -1.4486487012       38.1784645254
  H         1.0030289413       -0.6829170312       18.0769243256
  H         2.5597119696       -1.4210823159       19.0074643532
  C         2.0267006791       -2.1882927307       17.0086935659
  H        17.4579901606        0.0908963130       22.5935805990
  H        18.1327548892        1.7244526881       22.8565970993
  C        16.6906604318        0.9775625419       24.3275845338
  S        11.7420108850        5.9050237224       11.6903205813
  C        11.2411388427        8.5018688627       11.2594841528
  H         5.8314095362       -2.0700157467       37.6257963738
  H         5.5572702965       -0.4476130267       38.1845617745
  H         5.0716130874       -1.7950755251       39.1724914388
  H         1.1958889446       -2.8296659840       17.3336811549
  H         2.8793119269       -2.8362341788       16.9158017256
  H         1.6994069614       -1.8250817361       16.0319994956
  H        17.2668799283        0.2609718667       24.7946786944
  H        15.7014472260        0.6090933579       24.3549225893
  H        16.4777078774        1.9198059635       24.9115448991
  C        12.2878223997        6.7415659287       10.1925082082
  N        11.8917899502        8.0349415174       10.1198859470
  O        10.6846228846        9.5385420583       11.5085299270
  S        12.9345589416        6.0313891608        8.7474923108
  C        12.1373463651        8.9664351713        8.9725030407
  H        12.3363412161        9.9854586847        9.3120728496
  H        13.0805142949        8.7842515588        8.5033468843
  C        10.9926229654        9.0223573146        7.9774137260
  H        10.5625615806        8.1056099960        7.7552688205
  H        10.1829396110        9.6496858320        8.3577976601
  H        11.3049037869        9.3695966308        7.0393788126
  H         4.6704241145        1.1612120351       12.4708972832
  C         4.1548245989        2.0689484822       12.7405135259
  H         4.9933709595        2.7550745409       12.9273654249
  C         3.2532185175        2.4469751339       11.5226025839
  C         3.3868390520        1.8359793553       13.9954402337
  C         4.1645815475        2.7444805286       10.2519393453
  H         2.6601702342        3.2440266666       11.8581746505
  H         2.5531514838        1.6654581497       11.1903149713
  H         2.6941507416        2.6472644242       14.1617519219
  H         3.9812031598        1.7741861854       14.9112146530
  H         2.7583539098        0.8901134063       13.9800954474
  C         4.4540988083        1.5322093536        9.3891097762
  H         3.5485151882        3.4739690141        9.6907089508
  H         5.0319821605        3.2791275944       10.5580048460
  C         5.0091574905        1.7600525473        7.8742827311
  H         3.4585394834        1.0109069237        9.3559822018
  H         5.1058080716        0.8737666962       10.0204261227
  C         6.3499146865        2.4089342651        7.9625978662
  H         4.3193214163        2.3755560761        7.2786143412
  H         5.1265757151        0.7857702049        7.3124635047
  C         7.4548295975        1.6290319504        8.7578083080
  H         6.5923885608        2.8501303128        7.0527445535
  H         6.1683559987        3.3455715116        8.5036388745
  C         8.7812699043        2.4427638237        8.9498257950
  H         7.7300372832        0.7246050451        8.0814992429
  H         7.1688372993        1.1895424544        9.7070305491
  C         8.4263565095        3.7381893112        9.7257780450
  C         9.3524839866        3.1383932218        7.7595877485
  C         9.8137916145        1.6224159097        9.7340298978
  C         8.8048817646        4.8383689747        8.9863213089
  C         7.9345634812        4.1442515397       10.9931929217
  C         9.3312284125        4.5197615312        7.7147427357
  C         9.8052910853        2.5003063111        6.6005743433
  H         9.2444414696        1.2052805815       10.6554350968
  H        10.1841676881        0.7747815585        9.1557139296
  C        10.9815274267        2.4545269813       10.3108955208
  S         8.4961582005        6.3355721130        9.7377658965
  C         7.9427927116        5.4718804724       11.1370194338
  H         7.5748566397        3.3883133568       11.6917042462
  C         9.7279273633        5.1390149316        6.5447473278
  H        10.0138081330        1.4247444728        6.7120033176
  C        10.1565846443        3.1386362113        5.4616526214
  H        10.7448744441        3.3955478278       10.8617053148
  H        11.6033414478        2.5376834453        9.4524662160
  C        11.9654751933        1.6286403692       11.2269881063
  C         7.4332439169        6.1896345541       12.3635000032
  C        10.1359160015        4.5163422942        5.3753112530
  H         9.7676479457        6.2125569537        6.4953080066
  C        10.6212726669        2.8032097371        4.2291826158
  H        12.8356827281        2.3552779032       11.5117484910
  H        12.2199363170        0.7527730308       10.6602125101
  C        11.4245341315        1.1867740158       12.6106713768
  C         7.3743813515        7.5910730083       12.5453522794
  C         7.1590714761        5.3776777018       13.6058365655
  C        10.5607016998        5.1982983296        4.0669723951
  C        10.7660240726        3.8839025334        3.3601607591
  S        11.0393671467        1.2670648217        3.5162388285
  H        10.6481375197        1.8008065067       12.9497983339
  H        11.0764611285        0.2080907056       12.5614437611
  C        12.5006360588        1.2756170476       13.7541383797
  N         7.7218484113        8.5230202887       11.5593732183
  C         6.9183146873        8.1060399109       13.7272709419
  C         6.8437037940        5.9768184634       14.8069154868
  H         7.2549147338        4.3669019637       13.5916373985
  C        11.8277845192        5.9670078125        4.1869585722
  C         9.4693096853        6.0528270464        3.3161679937
  C        11.1005498923        3.4214674402        2.0599193592
  C        11.2078904705        2.1117817859        1.9841625440
  H        13.4134011204        1.8054757680       13.5585840133
  H        12.7867047833        0.2047182682       14.1194673010
  C        11.9217712823        1.8998791208       15.0312421816
  S         7.5540654311       10.0248855692       12.2592841974
  N         6.8667949412        9.5286268462       13.6435329330
  C         6.6712218881        7.4033953319       14.9323619473
  H         6.7702177281        5.3584313906       15.6642494275
  H        11.7159218188        6.7853261214        4.8846446071
  H        12.0943044177        6.4085904232        3.2501795490
  C        13.0077570301        5.2162391697        4.7634788921
  H         9.0547274502        6.9011661015        3.8374037795
  H         9.9196977435        6.4747003609        2.4004327084
  C         8.2012303495        5.2615905959        2.8082903158
  H        11.2566119682        4.1453828526        1.2979081151
  C        11.5686960424        1.3966878735        0.6982358382
  H        11.8605306914        2.9557740482       15.0022595147
  H        10.8489450737        1.5971563307       15.0252539170
  C        12.8150940853        1.6476794411       16.2605991419
  C         6.4342375123        8.0651284416       16.1811569117
  H        12.7339274629        4.7136932513        5.6604364783
  H        13.3029454994        4.4067504293        4.1573396219
  C        14.1925214186        6.1338213338        5.1049594895
  H         7.7409348438        4.6675486956        3.5699782637
  H         8.5221185404        4.5016371910        2.1366390218
  C         7.2315341370        6.1692009700        2.0800369777
  C        11.7528060480        0.0081703056        0.4600849621
  C        11.8038428742        2.1534268308       -0.5225442583
  H        13.7983196903        2.0054581797       16.0529475702
  H        12.8055670078        0.5810608811       16.4756243828
  C        12.3368152836        2.3128325472       17.5448867879
  H         6.3109527912        9.1217023290       16.1376499493
  C         6.0822877801        7.5883932506       17.4262613008
  H        14.0574139223        6.6804619565        6.0425543472
  H        14.4253015706        6.8563924021        4.3929645193
  C        15.4676836128        5.3709532695        5.4246539937
  H         7.0360722511        7.0395338372        2.6629580881
  H         7.7286328428        6.5537641638        1.1982145455
  C         5.9265475126        5.5027428769        1.6635275230
  N        11.6675904656       -0.9218492213        1.4734944243
  C        12.1258834583       -0.5642250174       -0.7363757956
  C        12.2954837553        1.5882741471       -1.6898494048
  H        11.6773925449        3.3050278492       -0.5679092520
  H        12.0809702631        3.3135306552       17.2009396432
  H        13.1317255252        2.0969102225       18.2914654567
  H        11.4101705449        1.7478623767       17.7553197418
  S         5.9344633446        5.9472719230       18.0631179364
  C         6.0029440540        8.6347094458       18.5036851557
  H        15.3796633692        4.3959872651        4.9298522754
  H        16.3608590092        5.9101847787        4.9703577785
  C        15.8012668677        5.2230054302        6.8963692980
  H         5.1542136289        5.4569653395        2.4862907195
  H         6.1318580604        4.4579922557        1.3938451676
  C         5.3841161811        6.2107622288        0.4202937477
  S        11.8087499759       -2.4422136360        0.8541351218
  N        12.2629091444       -1.9446836921       -0.6584384337
  C        12.4216936478        0.1425902645       -1.8710787275
  H        12.3769603792        2.2311403003       -2.5290742796
  C         5.5235847716        6.6756889895       19.6608153457
  N         5.6709297748        8.0230345908       19.6845844825
  O         6.1461666881        9.8650095471       18.3124461585
  H        15.8735039649        6.1478877846        7.4392972854
  H        15.0110664809        4.6364024166        7.4282875381
  C        17.1017317249        4.4060830982        7.0738188233
  H         6.1685711470        6.4541600619       -0.2923364052
  H         4.7405104096        5.6008387421       -0.1426178462
  C         4.6040336342        7.4207146883        0.6337646020
  C        12.8229224168       -0.4633193716       -3.0402022498
  S         5.1569766293        5.7587412178       21.0310954263
  C         5.7821790145        8.6970611115       20.9908759119
  H        16.9735791807        3.8438236756        8.0252064506
  H        17.1929775561        3.5809550759        6.3384840498
  C        18.3591921273        5.2681843172        7.1384216185
  H         3.8874775850        7.3689865088        1.4992073570
  H         3.9180229099        7.5120900427       -0.1736619851
  C         5.3512466744        8.7257401405        0.6822263740
  H        12.6730475616       -1.5008683558       -2.9947111605
  C        13.4557993404       -0.0232968836       -4.1716600329
  H         5.0337798225        8.3246403325       21.6788377839
  H         5.4238824073        9.7233213216       20.8696743428
  C         7.2167892266        8.7896698210       21.5688772138
  H        18.7594184895        5.1854040291        8.1587308594
  H        18.0826402761        6.3689993260        7.0211679366
  C        19.4861739588        4.9448772732        6.1260031991
  H         5.6598825324        8.9045548726        1.6995663951
  H         6.2934491921        8.6560783496        0.1102185141
  C         4.4550648815        9.9169011005        0.2519892187
  S        13.9030098317        1.5397209017       -4.6597170122
  C        13.6335478119       -1.0956092990       -5.1985491684
  H         7.9482913073        9.1058215609       20.8458577436
  H         7.5078840010        7.8884754460       22.1222952618
  H         7.1654221236        9.6026531828       22.2956873577
  H        19.3575335342        5.5669578422        5.2360685353
  H        20.3994434130        5.1879807997        6.5814853699
  H        19.3722288331        3.9241888786        5.8370880470
  H         3.9046936737       10.1883447431        1.1752380296
  H         5.0553473104       10.7891028112       -0.0213516690
  H         3.8207083080        9.6127814133       -0.5544619472
  C        14.2161011617        0.7979411721       -6.2967354368
  N        14.1218494395       -0.5487761050       -6.3065073715
  O        13.3057257442       -2.2610784350       -5.0385514333
  S        14.6024969527        1.5740661374       -7.8626516701
  C        14.3499745782       -1.3831469883       -7.4723110463
  H        14.4693759484       -2.4248754959       -7.1849085981
  H        15.3028368133       -1.0986918773       -7.8639599073
  C        13.1054625898       -1.3559555717       -8.3813146767
  H        12.2164831727       -1.3428581769       -7.7681940524
  H        13.2366670072       -2.2710502196       -9.0192247286
  H        13.1097290084       -0.4085158150       -8.9934516232
