352
 i =    22500, time =    11250.000, E =        96.1315580681
  H         8.9765727655        5.2076313645       31.6482359845
  C         9.4498935617        6.1064694514       32.0947855509
  H         8.6350918728        6.8540839208       32.1880643500
  C        10.3885615349        6.7287177636       31.0851103466
  C        10.1476712234        5.5982298921       33.3992822355
  C        11.2966607461        5.7492382498       30.3245355582
  H         9.9352124042        7.3304305790       30.2880617936
  H        11.0587399284        7.4261155725       31.6107469840
  H        10.8833661387        4.8065367654       33.2796363718
  H        10.6712734161        6.5146293610       33.7496454762
  H         9.4326362273        5.2074319205       34.1677309880
  C        10.5479085828        5.1237529612       29.1336551637
  H        11.6928547349        4.9321960004       30.8981006100
  H        12.1985365754        6.2121857711       29.9079667863
  C        10.9544366266        5.3069986127       27.7480047088
  H        10.4347171962        4.0781129152       29.4289581696
  H         9.4489218987        5.3897267640       29.2975650524
  C         9.9509533151        4.6619643486       26.6953565195
  H        11.9363559794        4.9174774141       27.7039854971
  H        11.0629910991        6.3609273846       27.4728602952
  C         8.7660432770        5.6345680762       26.3865277361
  H        10.4604761594        4.4656276671       25.7616774719
  H         9.7389027826        3.6945715866       27.0586707260
  C         7.5413370889        5.0937299719       25.6485257630
  H         8.3496473668        5.9297427252       27.3568426432
  H         9.1301135748        6.6338288255       26.0329383539
  C         7.1346637539        3.7120632088       26.2531645758
  C         7.9817230973        4.3143091378       24.3672157036
  C         6.3723577849        6.0645021740       25.4301640756
  C         7.3886014897        2.6104872929       25.5326132198
  C         6.6814698472        3.3271809428       27.5349714918
  C         7.8721988251        2.9509532881       24.2858274359
  C         8.4348939634        4.8363947645       23.2123872220
  H         6.7046351593        6.7578360625       24.6942925834
  H         6.1777476079        6.5568430554       26.4236097931
  C         5.0649350623        5.4531768037       24.8605709999
  S         7.1233682125        1.0816393841       26.2626966432
  C         6.4373138266        1.9297544598       27.6713815876
  H         6.3798519684        4.0709823938       28.2448968551
  C         8.0988552808        2.2704366304       23.0977637069
  H         8.3845206825        5.8733522420       23.1095833408
  C         8.6358790994        4.1670532804       22.0300440534
  H         5.4195101030        5.1382875535       23.8683804000
  H         4.9338985788        4.5806685528       25.5223445526
  C         3.8690974954        6.4432863064       24.8643491097
  C         5.9417716622        1.2897230040       28.8834648766
  C         8.5805420626        2.8491934986       21.9260177647
  H         7.9451427594        1.1890916539       23.1128477558
  C         9.0801850869        4.5503175857       20.7795728496
  H         3.0677481565        6.0892794300       24.1636632304
  H         4.2171250791        7.3795804809       24.3910851847
  C         3.2885666351        6.7316893191       26.1661423601
  C         5.9760914179       -0.1313678658       29.1182960607
  C         5.3812192627        2.1636984868       29.9621685192
  C         8.7902449987        2.1624314844       20.6536306481
  C         9.1486729742        3.4392426581       19.9956141867
  S         9.5852674376        6.0772638228       20.0557451660
  H         2.7367623720        7.6618631865       26.0121539281
  H         3.9151822495        6.9283116778       27.0427985140
  C         2.3194834627        5.6276579651       26.5782549187
  N         6.4407245990       -1.0913770850       28.2160447090
  C         5.6780209879       -0.6527808989       30.3551997272
  C         5.0636225795        1.5921146434       31.2159603866
  H         5.3065737116        3.2030346881       29.8999767507
  C         7.5698328436        1.4424693915       20.1319022393
  C        10.0754836435        1.2047135049       20.8045272817
  C         9.6359685074        3.8644582840       18.7454552847
  C         9.7666045848        5.2236384385       18.5861846314
  H         1.6746709371        5.3803674605       25.7366434338
  H         2.8902069775        4.7141991979       26.7970365338
  C         1.4537181223        6.0031949102       27.6999595391
  S         6.4020497161       -2.5520117315       28.9651201881
  N         5.8568418881       -2.0577370480       30.4079461605
  C         5.2505734383        0.1200749381       31.4397459009
  H         4.6842963790        2.0790462777       32.0632668560
  H         7.2028334697        0.8014837304       20.9432776700
  H         7.9335434238        0.6177229354       19.4199298928
  C         6.4350835682        2.3297118747       19.6555878444
  H        10.2511870227        0.7632324935       19.8290964679
  H         9.9165644804        0.3969690081       21.5236658244
  C        11.3705540932        1.8868506069       21.3233172449
  H         9.8413774368        3.0894725192       18.0464533403
  C        10.1622479005        5.9833037965       17.3191904021
  H         0.4220561178        6.1256491169       27.3535364568
  H         1.8356444778        7.0215429360       28.0057041339
  C         1.5766501177        5.1710944827       29.0061830378
  C         4.9129821090       -0.5480417516       32.6956977796
  H         6.8598817479        2.9380386693       18.8839792383
  H         6.0803272994        2.9754196039       20.4980252200
  C         5.2563684610        1.6422001401       18.9864245486
  H        11.1478428330        2.3546071574       22.2201373236
  H        11.6502435102        2.7042485426       20.7387333483
  C        12.5668624010        1.0309140479       21.5394217954
  C        10.2707998706        7.4016828165       17.1142155926
  C        10.3260073087        5.2706685919       15.9976757730
  H         1.2442487600        4.1578648212       28.7662140375
  H         2.6219205752        4.9550120098       29.3247851462
  C         0.7733276531        5.7189031860       30.1525416223
  H         4.8554533724       -1.6250008318       32.6263142515
  C         4.6806316926       -0.0941341294       33.9804098213
  H         4.6424915993        1.2898934037       19.8191057709
  H         5.5926759261        0.7715581531       18.3516575649
  C         4.4166727799        2.6349514617       18.2026987163
  H        12.3869086196        0.5240529645       22.4672427676
  H        12.6803674530        0.3454901714       20.7152560746
  C        13.8536968566        1.8074941384       21.7569100941
  N        10.1912545345        8.3545540374       18.1537989628
  C        10.4388278176        8.0724748763       15.9193886915
  C        10.6876308218        5.9130661917       14.8342139184
  H        10.1696717375        4.1688801596       15.9390588947
  H        -0.3069636241        5.6844609090       29.9891651893
  H         0.9338213874        5.0476897430       31.0014734805
  H         1.1779713777        6.6811723394       30.4380824782
  S         4.4361342786        1.5124059357       34.5573190736
  C         4.4029372316       -1.1538372878       34.9521921743
  H         4.4795473692        3.6113763140       18.6939548871
  H         4.8851412027        2.7719851402       17.2242306282
  C         2.9721443721        2.0734179370       18.2017063528
  H        13.8395586172        2.6182607341       21.0755715456
  H        14.6543854821        1.2034685081       21.6219495195
  C        14.0194376539        2.4196190714       23.1841891239
  S        10.2377197300        9.9005112251       17.5188866264
  N        10.4584751656        9.4820788728       16.0324948784
  C        10.7968063584        7.4287833273       14.7126878065
  H        10.8157225268        5.2471066205       13.9495200994
  C         4.1961272880        0.8162378117       36.0951958156
  N         4.2290010334       -0.5387082678       36.1636893329
  O         4.5903090798       -2.3091273688       34.7475214013
  H         2.4249120137        2.7456761770       17.5973828670
  H         2.5664502209        2.1808795628       19.2152122876
  C         2.8198673555        0.6583448758       17.7035287319
  H        13.1384705988        3.0020487405       23.4826744035
  H        14.1654722748        1.7127835737       23.9414865889
  C        15.2801397592        3.2728936084       23.2431808057
  C        11.1197061363        8.2156836387       13.5031116206
  S         3.8052707643        1.7632990024       37.5656943283
  C         4.0593001013       -1.3273393161       37.4257231368
  H         2.1334304877        0.7754627218       16.8971565881
  H         3.7371136539        0.2657231666       17.2011783158
  C         2.4024404687       -0.4225857860       18.7141776661
  H        15.2431431352        3.9855709201       24.0444478391
  H        15.3566884587        4.0216509846       22.4035573256
  C        16.5924459505        2.4327589334       23.2702504561
  H        10.8042355818        9.2384005452       13.5449740225
  C        11.7377231148        7.8518395075       12.2819774681
  H         3.3320313252       -0.8423000023       38.0313126800
  H         3.6062581000       -2.3715915766       37.4664858936
  C         5.3092700487       -1.3308756461       38.2774093501
  H         1.5246442933       -0.0206221573       19.2495978372
  H         3.1496903069       -0.5465177633       19.5004710791
  C         1.9590899653       -1.7910294432       18.0194075820
  H        17.3009345930        2.8481159706       23.9394368033
  H        16.3907872318        1.4402897056       23.5569192071
  C        17.4283050877        2.3285336825       21.9228175781
  S        12.3647514911        6.2263562824       11.9123370226
  C        11.9074345555        8.8509926636       11.3004747351
  H         5.2549747703       -0.3248530271       38.7318760708
  H         5.5265877977       -2.0696738795       39.0457436940
  H         6.2039141395       -1.3289485515       37.6582943605
  H         1.3336321180       -2.1994402419       18.7948929001
  H         2.7693709865       -2.3379390433       17.6507635980
  H         1.2489260590       -1.7000010893       17.2285713551
  H        18.3493475749        1.7311865972       22.0212400047
  H        17.7508631286        3.2782647554       21.5311215128
  H        16.8803528242        1.7934220092       21.1008783563
  C        12.6839251207        6.9638688008       10.3571850697
  N        12.5572228410        8.3161856596       10.2918717048
  O        11.5926693079       10.0212639688       11.4099886513
  S        13.2842562272        6.1207486606        8.9123759125
  C        12.7912259578        9.0791019377        9.0787532241
  H        13.0596607854       10.1649136142        9.2483738799
  H        13.6406772921        8.6077460257        8.5041398672
  C        11.6035795479        9.1010789365        8.1492650460
  H        11.2236281320        8.0646212317        7.8887067974
  H        10.7858718245        9.5476686272        8.7661906026
  H        11.8354898107        9.7524844102        7.2665777001
  H         4.7499372097        1.5343440043       13.2087803069
  C         4.0721909131        2.3224125764       13.2537001292
  H         4.6618538281        3.1591157471       13.5702336616
  C         3.3056259843        2.5990871540       11.9338509920
  C         3.2704338871        1.9992457513       14.4581322691
  C         4.2404032102        2.7957159302       10.8214199885
  H         2.7306690000        3.5035097047       12.0656964999
  H         2.5978025788        1.7827192633       11.7855843558
  H         2.8502678958        0.9526514642       14.3597797271
  H         2.4288075456        2.6068171522       14.3510893612
  H         3.8624929262        2.1167166403       15.3325917311
  C         4.8971626316        1.5627321725       10.2355442689
  H         3.6499415134        3.1589490545        9.9582963429
  H         4.9722402722        3.5766713156       11.0042498012
  C         5.3270917071        1.7521422563        8.7445769138
  H         4.2502077481        0.6877791712       10.2726573530
  H         5.8023300405        1.3246557213       10.8269690813
  C         6.5308613027        2.6797575244        8.6222814294
  H         4.4173848098        2.0906461470        8.2592926440
  H         5.4794852052        0.8300124664        8.2197808908
  C         7.9043731963        2.1062181822        9.1014221204
  H         6.5103463088        2.8656991683        7.6022457380
  H         6.3153582849        3.6509605384        8.9718980067
  C         9.1689066976        2.9690906150        9.3442261235
  H         8.0637818930        1.2360735385        8.4237569935
  H         7.7892511668        1.5278427091       10.1073673629
  C         8.8793504854        4.3195621700       10.0235144637
  C         9.6735527304        3.7181731347        8.1223054314
  C        10.2144757750        2.2539196471       10.1565554929
  C         9.2432117485        5.4315978013        9.3378652819
  C         8.4261120394        4.6589418391       11.2866951881
  C         9.7247555065        5.0839200800        8.1074826977
  C         9.9987115182        3.1162560167        6.9410565274
  H         9.7719615241        1.8487908025       11.0807343350
  H        10.4141559193        1.3656811730        9.5161600852
  C        11.4538233738        3.0725768865       10.4140434486
  S         8.8947088965        6.9385981162       10.1700276730
  C         8.2039343212        6.0149256778       11.4496577416
  H         8.2577224885        3.8925161881       11.9969116754
  C        10.0776900464        5.7181059853        6.9401533173
  H         9.9066300892        2.0205274200        6.7852777448
  C        10.4541958295        3.7205076204        5.8717334060
  H        11.1700867756        4.0831882475       10.7613760167
  H        11.9050588401        3.1846708095        9.4153855060
  C        12.5117928432        2.4338142808       11.3369860645
  C         7.7457371970        6.6720506456       12.7421310695
  C        10.5492774677        5.0607322791        5.7955392902
  H        10.0237595362        6.7704874457        6.9322855521
  C        10.8012520564        3.2788518080        4.6017377812
  H        13.3475265942        3.1164222376       11.4178187102
  H        12.8840290164        1.5245020136       10.8844856924
  C        12.0175968512        2.1239353215       12.7754759771
  C         7.7405758878        8.0513916601       13.0204503028
  C         7.4161314798        5.7618088336       13.9162182610
  C        10.9904361495        5.7257131104        4.4235375579
  C        11.0507828480        4.3781714304        3.7115834104
  S        10.8867873020        1.7170547729        3.8556955227
  H        11.2276670031        2.7543837939       13.0241995341
  H        11.5535752773        1.1494707772       12.8124581692
  C        13.1645911436        2.1121435357       13.7636402285
  N         7.9926435782        9.0308891682       12.0576253066
  C         7.5102642437        8.5860291930       14.2991611960
  C         7.1690431550        6.3605921122       15.1479351840
  H         7.3716946426        4.6767139726       13.8838777752
  C        12.2500336227        6.5751938046        4.4975717833
  C         9.7242210734        6.5751430589        3.9899706145
  C        11.2781008267        3.8766439853        2.4181827144
  C        11.2820995804        2.5354936780        2.3481064922
  H        13.4904159809        3.1365046370       13.7908558811
  H        14.0461995546        1.6386921955       13.2735290212
  C        12.8817929985        1.5258222444       15.1703834994
  S         8.1912716536       10.4119712002       12.8577803880
  N         7.6395947581        9.9696347265       14.2810701512
  C         7.2247343752        7.7779807099       15.4523497895
  H         6.9783253406        5.6601206208       15.9266797527
  H        12.0383962447        7.3319435569        5.2701697948
  H        12.5259050637        7.0786445203        3.5911747273
  C        13.3621835632        5.7431957817        4.9634562426
  H         9.5871917603        7.3695924835        4.7452805731
  H        10.0940571668        7.0236089116        3.0833205499
  C         8.3680921696        5.8302925332        3.8006652773
  H        11.5362356715        4.5946231568        1.6591881433
  C        11.5379220866        1.7016845998        1.1093412040
  H        11.8311207833        1.1408633506       15.0814115095
  H        13.6407804004        0.7092851274       15.2731889538
  C        12.9888013304        2.5145242999       16.3157572299
  C         6.9631097675        8.4218057994       16.7099699667
  H        13.2291850412        5.3543898605        5.9783140094
  H        13.3935758276        4.8893895512        4.4155120326
  C        14.7522220260        6.4567324880        4.8758314353
  H         8.1489931452        5.2215589801        4.6075904758
  H         8.5226969442        5.1232698602        2.9529300827
  C         7.2632485913        6.7808019515        3.4428935917
  C        11.6131299896        0.2511019837        1.0031658664
  C        11.7863195367        2.3938064170       -0.1958895901
  H        12.2919339459        3.3273713855       16.0816060670
  H        13.9013836298        3.1081203650       16.3935889925
  C        12.8718057890        1.8568954036       17.6957585516
  H         7.0727988112        9.4704141222       16.6682696332
  C         6.6541902444        7.9292199824       17.9633054050
  H        14.7351427931        7.2136132194        5.6124268761
  H        14.8250696994        6.8272817790        3.8758303467
  C        16.0426394820        5.7127995754        5.2063089154
  H         6.9664082918        7.5746481563        4.1354370549
  H         7.6790604291        7.2284060780        2.5369432418
  C         5.9169646515        6.1965247515        3.0194143375
  N        11.3526186186       -0.6070855188        2.0800106240
  C        11.9284313045       -0.4619748824       -0.1701023095
  C        12.1389338402        1.6765265953       -1.3252820141
  H        11.6614295384        3.4977479485       -0.1932913756
  H        11.8213596640        1.6499677446       18.0393705190
  H        13.2471080262        2.5544380475       18.4635898240
  H        13.4923429766        0.9221112391       17.6655333274
  S         6.4712221607        6.2316309480       18.3887218552
  C         6.5915567234        8.8701943954       19.0572778475
  H        16.0500334721        4.8176340114        4.6649404998
  H        16.8764983674        6.3150868914        4.8637644881
  C        16.2077095193        5.4374098468        6.6854271537
  H         5.2117760103        6.1795814506        3.8413000351
  H         5.9855231727        5.1505264793        2.6841859833
  C         5.2364039631        6.9140925218        1.8399153131
  S        11.6638747192       -2.1331462729        1.5951083357
  N        11.9964023268       -1.8422887442        0.0504037241
  C        12.2092665417        0.1982128043       -1.4026674183
  H        12.3060705238        2.2168095216       -2.2255205879
  C         6.1884362484        6.8627707088       20.0159555065
  N         6.1472087261        8.2423232839       20.1283925415
  O         6.6620950494       10.0771979152       18.9480735771
  H        16.1006367660        6.3806891828        7.2017446866
  H        15.5100108188        4.7236139934        6.9555539105
  C        17.6462124144        4.8667412489        6.9137076243
  H         5.8660393015        6.9969448665        0.9462542494
  H         4.2859950569        6.3674730680        1.6404651684
  C         4.6781104321        8.3006628677        2.2456177244
  C        12.4735691193       -0.6283940572       -2.5267775365
  S         5.4881555251        5.8267694241       21.2733667211
  C         6.0517737779        8.8801081601       21.4781018882
  H        17.5719299394        4.1923406838        7.7190615019
  H        17.9320499335        4.2688585719        6.0140437017
  C        18.6605488908        5.9583834868        7.2102974856
  H         5.4808919308        8.9267823751        2.5845109751
  H         4.0422619411        8.1586265362        3.1361389712
  C         4.1190492369        8.9658322347        0.9732723764
  H        12.2654177619       -1.7118815094       -2.3872503909
  C        12.9196059724       -0.2993523881       -3.8044576990
  H         5.3775542784        8.5692687865       22.2307617083
  H         5.5924769553        9.8288293758       21.2185014948
  C         7.4125528123        8.8954057083       22.1497851307
  H        19.0749356087        5.7089564743        8.2306133888
  H        18.1674094038        6.9173411518        7.0934984658
  C        19.8262506702        6.1503086590        6.2151898947
  H         4.9200943530        8.9979708423        0.2913396511
  H         3.3888740794        8.3031953010        0.4694639342
  C         3.5051070005       10.3563099099        1.2884689960
  S        13.2402141589        1.3087133317       -4.3576153648
  C        13.0344087918       -1.3423676183       -4.7581195458
  H         8.0952248939        8.5868488823       21.3636640650
  H         7.5057064067        8.1006995726       22.9458779274
  H         7.7238233251        9.8269893379       22.5264974674
  H        20.7759280708        6.3992779140        6.7803176710
  H        19.9398200460        5.2187539807        5.7210065263
  H        19.6112138344        6.9034341686        5.3964422506
  H         4.2233077717       11.1133435885        0.9718502291
  H         2.5519533947       10.5238688076        0.8216322285
  H         3.3039291722       10.5270593218        2.2869605753
  C        13.6469439704        0.5546379405       -5.9052938553
  N        13.5446086873       -0.8066174088       -5.8740767874
  O        13.0317167518       -2.5596753866       -4.5369057823
  S        14.3357137519        1.3695587711       -7.3209309039
  C        13.6794876303       -1.6297130621       -7.0480428106
  H        13.5679979377       -2.6967122852       -6.7667464203
  H        14.6531422276       -1.4798715843       -7.5027769130
  C        12.5455594298       -1.3153750440       -8.0071801013
  H        12.8946865602       -0.9743731121       -8.9939338820
  H        11.7841681992       -0.5987895536       -7.6651936050
  H        12.2158293411       -2.2623208330       -8.2795808525
