352
 i =    55300, time =    27650.000, E =       100.0700326315
  H         9.8569134941        5.2737961235       31.8835159692
  C        10.1579560773        6.2297554438       32.3271593110
  H         9.2724162468        6.7937870372       32.5666204845
  C        10.8190186440        7.0106379646       31.1865316464
  C        11.0706991413        5.8964468771       33.5524068946
  C        11.1978751393        6.1908927600       29.9077510739
  H        10.1040292435        7.7146085071       30.8559110478
  H        11.7171073299        7.4211499867       31.5710310380
  H        10.9195029435        6.7228439357       34.2121144756
  H        10.9457682212        4.8976413707       34.0451582551
  H        12.1652955443        5.8053087650       33.2979185964
  C        10.0558072554        5.7797992400       28.9900197079
  H        11.7776055062        5.2094872442       30.1468556058
  H        11.9014973537        6.7614015198       29.3347965348
  C        10.4889934207        5.5432531646       27.5293166416
  H         9.5979079624        4.8530530265       29.3547357716
  H         9.1922806053        6.4266562609       29.0822501761
  C         9.4439464996        4.8209023787       26.6960125737
  H        11.3783234888        5.0374911057       27.3717266471
  H        10.6135274993        6.5405943999       27.1302080574
  C         8.1524703127        5.6334027356       26.3816058639
  H         9.8877826309        4.2968555574       25.8592968210
  H         9.0355148035        3.9798189752       27.2020132014
  C         7.0310920766        5.0119757264       25.6247405430
  H         7.6733156108        5.8024013189       27.3445605732
  H         8.3092230379        6.5519773565       25.9953156482
  C         6.6931093094        3.6716417794       26.2905756894
  C         7.4340422124        4.3039094792       24.3877310259
  C         5.8178079768        5.9596843427       25.5577768406
  C         6.8421832491        2.5843177807       25.4680610076
  C         6.1680371631        3.3036299012       27.5887387413
  C         7.4398719463        2.9431416773       24.2866701324
  C         8.0211199852        4.8481032150       23.2800131728
  H         6.1464004899        6.8654414811       25.1507537740
  H         5.4713548003        6.1276439901       26.5315874655
  C         4.7152534258        5.4517365743       24.7444065434
  S         6.3238388716        1.1872414252       26.2216741726
  C         5.9918471109        1.9513829174       27.6768314966
  H         6.0926995725        4.0021918281       28.3618820240
  C         7.8289020076        2.3143089579       23.0938131622
  H         8.0506240391        5.9199373984       23.2424421758
  C         8.4760003301        4.2840805286       22.1110654247
  H         5.0361843647        5.5518314561       23.7034041141
  H         4.4965285411        4.4196901782       24.9464562275
  C         3.4362471690        6.3129149375       24.8656712228
  C         5.6237761059        1.2766892903       28.9682799580
  C         8.3836947975        2.9459579166       22.0187351322
  H         7.6310333691        1.2820416074       23.0370840096
  C         8.8309599526        4.7312817593       20.8242692817
  H         2.7680650082        5.8548411770       24.0588956067
  H         3.6729154100        7.3236284187       24.4807246182
  C         2.6602914047        6.3050626728       26.1526333259
  C         5.7558507334       -0.0898852842       29.2352757512
  C         5.1002810195        2.1471911532       30.0962673610
  C         8.9454736554        2.2634486572       20.7443205050
  C         9.1620654259        3.6547565206       19.9912177865
  S         8.9563753118        6.2648233816       20.0182241162
  H         1.7399742411        6.8128533698       25.9600979079
  H         3.2508766388        6.9255775756       26.8946303171
  C         2.5010687971        5.0468271059       26.9040056978
  N         6.1718398398       -1.0227307591       28.2477958274
  C         5.5373006777       -0.6098323444       30.4511003486
  C         4.8823623336        1.5704218919       31.3081683020
  H         4.9982149301        3.2310352735       30.0339852255
  C         7.8599884461        1.3802458522       20.0585825797
  C        10.1681223531        1.4278369188       21.0686135780
  C         9.5673460616        4.0882580177       18.7461485198
  C         9.4759869198        5.4296885710       18.5774575813
  H         2.1756168401        4.2971144412       26.2906204531
  H         3.5325337723        4.8085615459       27.1552564525
  C         1.6340883549        5.1966554161       28.1373802227
  S         6.2633559245       -2.4643281119       29.0203014437
  N         5.8557984901       -1.9796256826       30.5500134505
  C         5.1282719825        0.1423857136       31.5535439679
  H         4.6007643735        2.2308467933       32.1400693130
  H         7.5614003295        0.5832986660       20.7035564546
  H         8.4561196087        0.9262157766       19.2414716300
  C         6.5478822041        2.0704395792       19.5633868135
  H        10.5838177294        0.9593782817       20.1722003503
  H         9.9712151223        0.6412834604       21.8176571000
  C        11.4218099159        2.2133040245       21.4796685596
  H         9.7005646433        3.3795932412       17.9632046938
  C         9.8448635783        6.1190232555       17.3528935267
  H         0.9315014774        4.3999828399       28.0288931249
  H         0.9823103897        6.0476246407       28.0775066028
  C         2.4284799257        5.0766605713       29.4465775270
  C         4.9755670237       -0.4988975222       32.8140536190
  H         6.8003896612        2.9899187189       18.9916628311
  H         5.8505389684        2.2878649693       20.4211567078
  C         5.7827516722        1.1280486770       18.5852232243
  H        11.1327494816        2.7779533031       22.3548016999
  H        11.6357036468        2.9571801741       20.7080020612
  C        12.6033823053        1.2816112387       21.7587093719
  C         9.7237625366        7.5165890689       17.0957289362
  C        10.0152055500        5.2685259183       16.0888044746
  H         3.1183047468        4.2097490380       29.5425450472
  H         3.0204424342        5.9543956676       29.5606464915
  C         1.6811891099        4.9084305036       30.7768010714
  H         4.8724449541       -1.5588416728       32.6807773159
  C         4.6447500922       -0.0359424042       34.0863856062
  H         5.7049698557        0.1881139027       19.1283679706
  H         6.3815213057        0.9964436570       17.6810448553
  C         4.3584668618        1.6193732138       18.2630411215
  H        12.4772063742        0.7687403830       22.7203922279
  H        12.6757341351        0.6058803033       20.9702635227
  C        14.0278695909        1.9113086746       21.6041006184
  N         9.5914213020        8.4871488342       18.0682497528
  C        10.0298183309        8.0905143947       15.8254532978
  C        10.2160802273        5.8084518532       14.8325176785
  H        10.1082226303        4.1781096616       16.0541394293
  H         2.2877204887        4.6396803471       31.6390793279
  H         1.1689337558        5.8876313785       31.0200896588
  H         0.8587960561        4.2461902362       30.7990390751
  S         4.2446076693        1.5438163111       34.6839700383
  C         4.6374365548       -1.1944803221       35.0420103054
  H         4.0927240657        2.5701642355       18.7440440408
  H         4.2623650056        1.8822588271       17.2370591873
  C         3.3761585489        0.5949442082       18.5780403047
  H        14.0697698171        2.7994432206       22.2423447284
  H        14.0506296341        2.2923465750       20.5986755857
  C        15.1546955047        0.9688708857       21.5754248731
  S         9.7254257294        9.9060216840       17.3396953047
  N        10.0798473407        9.4446928030       15.8142064144
  C        10.2391223377        7.3192800505       14.6512618721
  H        10.3327207122        5.1353400355       13.9893910844
  C         4.0524965378        0.6809119418       36.2457322075
  N         4.2519030493       -0.6551569179       36.2326391295
  O         4.8809005552       -2.3474851920       34.8199651238
  H         2.3447231326        0.9401107059       18.5085434088
  H         3.4174929271        0.4253671950       19.6298063365
  C         3.4413556017       -0.5784461690       17.5876151607
  H        15.0420754929        0.1322389124       22.2615059305
  H        15.0035544198        0.4889273601       20.5766670101
  C        16.4707033908        1.7452860106       21.6694466691
  C        10.5593479767        8.0129933402       13.4490507593
  S         3.3158996955        1.2820740771       37.7245878174
  C         4.2760714011       -1.5488660698       37.4505784382
  H         3.5934361422       -0.2438703248       16.5365919366
  H         4.2960241367       -1.1363527324       17.6424190975
  C         2.3076791450       -1.4451158321       17.7813416287
  H        16.2630497774        2.8173181546       21.8322963326
  H        17.0419277866        1.7297771107       20.7078590348
  C        17.4082107243        1.2095564886       22.7896437138
  H        10.4203958127        9.0865721469       13.4263108386
  C        11.1464069975        7.6249101517       12.2141300551
  H         3.4853541409       -1.2166762321       38.1267258373
  H         3.8533646059       -2.4864474419       37.1615757426
  C         5.7249287317       -1.8387515779       37.9905919371
  H         1.2738181223       -0.8833278430       17.8038930144
  H         2.4453705915       -1.9690387419       18.7555928690
  C         2.1079674959       -2.4840983120       16.7116237812
  H        17.7866159895        0.2219724474       22.5680752559
  H        18.2627760827        1.8921597516       22.8816964289
  C        16.8785591203        1.3036389578       24.2375741113
  S        11.5588423903        6.0539803313       11.7673540918
  C        11.0934992836        8.5813442663       10.9982325886
  H         5.8496778138       -2.4658028772       38.8878463720
  H         6.3989356571       -2.2496650734       37.2298330508
  H         6.1597152748       -0.7924637731       38.2466915609
  H         1.2729071710       -3.1970271386       16.9217657742
  H         2.9763332011       -3.1994163496       16.5083437985
  H         1.8370881261       -1.9969796365       15.7378815154
  H        17.6891374825        0.9801731387       24.9340163857
  H        16.0880353144        0.6017515628       24.3411518326
  H        16.3754470603        2.1960332817       24.4583749579
  C        11.8662414335        6.6915185007       10.1964949994
  N        11.8041038106        8.0044713281       10.0045798129
  O        10.7262735049        9.6839250699       11.1907274435
  S        12.6160621160        5.6492566722        8.9071176006
  C        12.2395801322        8.5788469852        8.6983259959
  H        12.6058341922        9.5823175613        8.8958461770
  H        13.0219084317        7.9995088223        8.1888812560
  C        10.9562389258        8.6950680869        7.8339144952
  H        10.4321227447        9.5462197297        8.1584613445
  H        11.2456579000        8.8998328755        6.8734578446
  H        10.3396671922        7.8021742300        7.9058027266
  H         4.0639432774        0.9560001148       12.3954666645
  C         3.4198040573        1.8373070744       12.3994759592
  H         4.1025786048        2.7095077373       12.3927884952
  C         2.7477465169        2.0650193826       11.0439262934
  C         2.5308530965        1.7900018426       13.6735302530
  C         3.7696686558        2.3277780132        9.9284573275
  H         2.0366171160        2.9246676616       11.0812344142
  H         2.1259533111        1.2335908716       10.9253111193
  H         1.7850595995        2.6014175074       13.6136876418
  H         3.2199166962        1.8860838813       14.5428194956
  H         2.0330427790        0.8660127802       13.8047945355
  C         4.3486368977        0.9652008401        9.5055809207
  H         3.3273823061        2.7004620307        9.0807699861
  H         4.5193676671        3.1004585586       10.1499018642
  C         5.1491584729        0.9853709873        8.1673573770
  H         3.5478779643        0.2406891514        9.2333587536
  H         5.0043295044        0.6656617439       10.3176108423
  C         6.3642023282        1.9264609440        8.1759609330
  H         4.5226183109        1.3393663830        7.2913104906
  H         5.4695445861       -0.0374577934        7.9510571016
  C         7.5569239163        1.3685586392        8.8871826545
  H         6.6280883470        2.0580463600        7.1438289234
  H         6.0548966675        2.8226398413        8.6046833396
  C         8.8019084291        2.2885966685        9.0346035946
  H         7.9285543572        0.4899703451        8.3868043715
  H         7.1611025549        0.9490697963        9.8541754882
  C         8.4548228672        3.6508176427        9.6763238748
  C         9.2180177237        3.0308853391        7.8112488968
  C        10.0089551975        1.5542338539        9.5843568914
  C         8.6342640277        4.7605636753        8.9163086633
  C         7.9877691853        3.9525580725       10.9190319542
  C         9.1972231956        4.3407697621        7.6993570350
  C         9.7194359692        2.4569771111        6.6296525364
  H         9.8082937137        0.9683696002       10.4476204440
  H        10.4275239636        0.7878294202        8.7961080421
  C        11.0810300965        2.4094570076       10.1627457770
  S         8.2956876909        6.2376177045        9.7019090890
  C         7.8167736190        5.2969754008       11.1073336374
  H         7.8053220346        3.1260941922       11.6217909351
  C         9.6582956711        5.0361042744        6.6014907928
  H         9.7914542171        1.3697867235        6.6260744700
  C        10.0546078608        3.1455671620        5.4879047375
  H        10.6567343467        3.2108644690       10.7278736036
  H        11.5240749071        2.9121608889        9.3743401085
  C        12.1244133522        1.7833066015       11.1267413383
  C         7.4826569404        5.9596019410       12.4260236483
  C        10.1384799562        4.4476959095        5.4312036020
  H         9.6079684031        6.1245195329        6.7108010306
  C        10.5485544854        2.7460600706        4.2781182752
  H        13.0102075660        2.3733904884       11.0403534742
  H        12.5204495908        0.7998090845       10.6585481845
  C        11.5728895577        1.6544307910       12.5848141565
  C         7.3708288976        7.3410143488       12.6871516719
  C         7.0841564927        5.1369796247       13.5930492563
  C        10.6109060143        5.2458046065        4.2638219704
  C        10.7935324918        3.9046564779        3.5685978393
  S        10.9228728430        1.2870290104        3.4591787626
  H        10.9167964477        2.4170061577       12.7654732973
  H        10.9574875879        0.7714582041       12.6315188341
  C        12.6590088976        1.7062383134       13.6676212089
  N         7.5119393749        8.2922386874       11.6510823817
  C         7.1403119219        7.8759452379       13.8983650188
  C         6.6736106061        5.6899083641       14.7924936179
  H         6.9137674148        4.0955142956       13.4822422450
  C        11.8921240075        6.1218633692        4.5906291747
  C         9.4029880856        6.1071157418        3.7077486499
  C        11.1268261514        3.5789692420        2.2854099985
  C        11.2276500559        2.2359170927        2.0387525710
  H        13.1984494058        2.7130377671       13.5444742074
  H        13.3228019034        0.8528515957       13.5286531044
  C        12.1114899974        1.6834154217       15.1067576800
  S         7.2846603058        9.7642778100       12.3699135984
  N         7.1998508425        9.2878894460       13.9292116993
  C         6.6824371197        7.1582747638       14.9966783479
  H         6.3687961498        4.9679295533       15.5342012872
  H        11.8830403180        6.7417248891        5.4332024803
  H        12.1400596765        6.7063637686        3.7331822992
  C        13.1045919746        5.2975557166        4.9292677736
  H         8.8822029987        6.5971674525        4.5524232222
  H         9.7775788788        6.7810942309        2.9936903453
  C         8.3733869096        5.3607203239        2.8565484994
  H        11.2735624519        4.3348601532        1.5745409777
  C        11.6214250710        1.5440526254        0.7532330227
  H        11.8042307828        2.7044535648       15.3839491477
  H        11.2183560592        1.0873659971       15.1760012270
  C        13.1718590507        1.2494302242       16.0663138478
  C         6.4316278659        7.9061180663       16.1797369649
  H        12.8868554661        4.5940461804        5.7531785122
  H        13.4413674016        4.6705119607        4.0613171366
  C        14.1365705701        6.3161125187        5.4242344921
  H         8.1319003356        4.4311790222        3.3242146627
  H         8.8429342921        5.0774167901        1.9392176509
  C         7.1651854722        6.2471319399        2.4566132563
  C        11.6135550856        0.1068437893        0.5037249764
  C        11.7598335195        2.3970715228       -0.4528688872
  H        14.0681917598        1.8361234626       15.9355877400
  H        13.4511186368        0.2634818269       15.8091497656
  C        12.7521405367        1.3456264609       17.5763521985
  H         6.5117865751        8.9391421761       16.2110001919
  C         6.3023285677        7.4907465759       17.4834203038
  H        13.8568945588        6.7839901775        6.3619658060
  H        14.3682866141        7.1868349551        4.7581163562
  C        15.5475086829        5.7213608043        5.5218039466
  H         6.5399650480        6.3199607767        3.3011695688
  H         7.5475355631        7.2149342100        2.2482665681
  C         6.3245953013        5.6624492572        1.3344786431
  N        11.2912915136       -0.9130909306        1.4461752914
  C        11.8973411692       -0.4245295050       -0.7157180173
  C        11.9776068536        1.8204815274       -1.6969135301
  H        11.7858813018        3.4575709274       -0.3472377871
  H        12.5289674709        2.4120318368       17.8685447702
  H        13.3904854285        0.8534157931       18.3348306779
  H        11.7538971891        0.8885172907       17.8286436044
  S         5.8755218149        5.8995264772       17.8989635985
  C         6.1037138683        8.4683434179       18.5246086425
  H        15.6077201522        5.1332081493        4.5832951422
  H        16.2536620983        6.5229513193        5.4044053812
  C        15.7537135520        4.9113898728        6.7304191298
  H         5.7562395185        4.8623623402        1.8004104223
  H         7.0713694711        5.2755355518        0.5772803701
  C         5.5146660342        6.7789441211        0.6261955439
  S        11.4462741119       -2.3710698263        0.7171841248
  N        11.8903892432       -1.8289757840       -0.8137599400
  C        12.1509311477        0.3853096952       -1.8260498336
  H        11.9870140243        2.4517765539       -2.6055619667
  C         5.8782385017        6.4894667772       19.6087999277
  N         5.8637752095        7.8202938482       19.7230338981
  O         6.1359691646        9.6856618222       18.3373243598
  H        15.7901474296        5.5233615040        7.6237990437
  H        15.0729825452        4.1326381089        6.8727629439
  C        17.0880766927        4.2287530979        6.8110949070
  H         6.1554959613        7.4215871765        0.1472909822
  H         4.9313525757        6.4172238652       -0.1804009896
  C         4.5147152358        7.5846892323        1.5329295118
  C        12.3999412918       -0.3493655281       -3.0169049232
  S         5.4831828410        5.5379638524       20.9734417520
  C         5.9911543591        8.5113403182       20.9915464949
  H        17.1957948647        3.6694745433        7.7234560085
  H        17.1327031095        3.4514110592        6.0920187129
  C        18.3273315934        5.0735352155        6.7091675857
  H         4.4510102689        7.0669127036        2.4742155169
  H         3.4352662819        7.6450702047        1.2041516443
  C         5.0698573167        9.0343055893        1.7319981560
  H        11.9272126578       -1.3659356268       -3.0692266098
  C        13.0233535265        0.0159822471       -4.2319625989
  H         5.4606861414        8.0395503777       21.8273163109
  H         5.5974235939        9.4809819991       20.9051694162
  C         7.3957406080        8.5540845676       21.4658015936
  H        19.2292624146        4.5986076757        7.1981400379
  H        18.2009294734        5.9949669570        7.2428336562
  C        18.7967668610        5.3938187910        5.3095987468
  H         4.4823182133        9.4459249068        2.5241899903
  H         6.0678451984        9.0660208634        2.1515381064
  C         4.9697414935        9.8096300526        0.5208456064
  S        13.7777112917        1.5525021369       -4.5939032721
  C        13.1040103920       -1.0312114601       -5.2882146636
  H         8.1344116024        8.8995928077       20.7271841316
  H         7.7706698744        7.6637485537       22.0079333755
  H         7.4542553726        9.3597555397       22.2012171058
  H        18.1171846426        5.1535012904        4.5851692636
  H        19.1259479362        6.4682049219        5.2224406179
  H        19.6935453551        4.8275034792        5.0611731116
  H         4.5042541754       10.7398749008        0.7069566395
  H         5.9265837382       10.1546733975        0.1542899201
  H         4.4685379791        9.2337039175       -0.2695234091
  C        14.2348150035        0.7471031215       -6.1738581094
  N        13.8315172346       -0.5264012186       -6.2671965735
  O        12.6348186063       -2.1543444262       -5.2024126410
  S        14.9213226756        1.5255047963       -7.5516658455
  C        14.0506420518       -1.3037665912       -7.5105611809
  H        14.1808787358       -2.3522118742       -7.3287172579
  H        15.0068211843       -1.0324186769       -7.9661514191
  C        12.8593323919       -1.0372842409       -8.4244466350
  H        11.9118259981       -0.7562561193       -7.8715917415
  H        12.7578631277       -1.8967517071       -9.0589775410
  H        13.0083538832       -0.2842140831       -9.1370314249
