352
 i =    49900, time =    24950.000, E =        98.2147042439
  H        10.2080946396        4.8809853249       32.6733196005
  C        10.8052707454        5.7814967839       32.8016420565
  H        10.2225982129        6.4415612038       33.4735344965
  C        11.0564897540        6.4291839274       31.4382958731
  C        12.0818960473        5.2662204862       33.4836898427
  C        10.7962825809        5.4347236871       30.3067384683
  H        10.4211810428        7.3834912072       31.3436543327
  H        12.0783478354        6.6876907985       31.3194301119
  H        12.9187389509        5.1246658372       32.8511476917
  H        12.4056544337        5.8141313717       34.3099870493
  H        11.7547606453        4.3141618097       33.8898191599
  C        10.4067109804        6.2558800491       29.0473906039
  H         9.8630042862        5.0190434494       30.6711303220
  H        11.5939104515        4.7006929963       30.1624545343
  C        10.7564598764        5.5510600680       27.6598789618
  H         9.4339767715        6.6930838966       29.0625007677
  H        11.0713752147        7.1671846712       29.0194069905
  C         9.5468259781        4.8293545505       27.0377715488
  H        11.5662656749        4.8610561011       27.8963902434
  H        11.0676939313        6.2800418162       26.8986859565
  C         8.5025699915        5.8233567229       26.4308938492
  H         9.9091307452        4.2896950307       26.2189316439
  H         9.0807852822        4.1926152262       27.7986375333
  C         7.3934872179        5.1949485676       25.5411928214
  H         7.9852908852        6.3482291679       27.2174988154
  H         9.1175369638        6.6125329633       25.8390906191
  C         7.0350673935        3.8467930908       26.1466871439
  C         7.9104162129        4.4692269064       24.2547872898
  C         6.1662813232        6.1151798192       25.3390298236
  C         7.2354203668        2.8006106913       25.2944753225
  C         6.4480261306        3.3906929324       27.3092979609
  C         7.7777258698        3.1234986732       24.0892674709
  C         8.3669638068        5.0853898665       23.0553092390
  H         6.4635110004        6.9692320314       24.6662926582
  H         5.8928826105        6.7221469710       26.1886262213
  C         4.8678974662        5.5072885652       24.7249945509
  S         6.8916568030        1.2254371352       25.9046242361
  C         6.3464118561        2.0177524233       27.3515399128
  H         6.2159059057        4.1533467182       28.0672309817
  C         8.2453332386        2.5402967417       22.9775123204
  H         8.3734626817        6.1596992241       23.2621758174
  C         8.7056755356        4.5457553312       21.8764613542
  H         4.9514666227        5.0619267065       23.7903636905
  H         4.6455063758        4.6172824279       25.3441491662
  C         3.6264921326        6.3737195187       24.8477798088
  C         5.7254628692        1.2791237479       28.5348291794
  C         8.6720651800        3.2272980171       21.8278483736
  H         8.1258717884        1.4405094733       22.7753130360
  C         9.1265789064        4.9767901372       20.5679184651
  H         2.8939982558        5.9888718234       24.2252501896
  H         3.9025484926        7.3266770795       24.5445902350
  C         3.1050231904        6.4741440139       26.2069449658
  C         5.6299907559       -0.1507333573       28.7168495611
  C         5.2052737897        2.0802721463       29.6805089082
  C         9.0836207432        2.6129512705       20.5163107944
  C         9.2795946837        3.9094419056       19.7341790216
  S         9.2317247221        6.5030108516       19.8498729348
  H         2.3787354527        7.3392625595       26.1446234176
  H         3.9400711138        6.7357320549       26.9211783693
  C         2.2348658031        5.2871453909       26.7704062576
  N         6.0587273986       -1.1162231693       27.7856692217
  C         5.3173484658       -0.7010628794       29.9136460160
  C         4.9308043453        1.4434607257       30.8841729425
  H         5.1107855568        3.1856466879       29.6779067881
  C         7.9862808879        1.7829796284       19.9131613870
  C        10.3730307970        1.8305729639       20.6656340875
  C         9.6229161503        4.3541645091       18.4384375680
  C         9.6241766793        5.7029863261       18.3591150042
  H         1.3785466254        5.3512415925       26.2000765376
  H         2.7174931561        4.3217488299       26.5446129537
  C         1.8455738659        5.3583938650       28.1966124638
  S         5.9834058817       -2.6057303782       28.5270641745
  N         5.3764592105       -2.0912657017       29.9098036684
  C         5.0196931169        0.0296356009       31.0816078083
  H         4.5673776071        2.1772453555       31.5498961575
  H         7.5855761036        0.9581512306       20.5691167111
  H         8.5338161596        1.2791033908       19.0041596341
  C         6.7260033416        2.4827082257       19.2802240213
  H        10.6554134316        1.3009677269       19.7833911773
  H        10.1930069782        1.1510144266       21.4912391249
  C        11.5183129727        2.6563124580       21.0733964313
  H         9.8409241327        3.5326440783       17.7220854805
  C         9.8711415649        6.4417654677       17.1019892169
  H         1.1275706616        4.5090789280       28.3586217212
  H         1.3427973089        6.3113655797       28.4098195661
  C         2.9476490073        5.1838822190       29.1750949329
  C         4.7265848427       -0.5857806298       32.3349458333
  H         6.9009688502        3.5289302870       19.0179075336
  H         5.9028297214        2.4557049515       20.0584319684
  C         6.1776677160        1.7787493021       18.0355050124
  H        11.2982768027        3.2536560301       22.0046830161
  H        11.8426772342        3.3231373526       20.2322936143
  C        12.7469248582        1.8082362019       21.3497762582
  C         9.9883834211        7.8357872960       17.0332887288
  C         9.8745386101        5.6963473296       15.8298273611
  H         3.3691018308        4.2579019968       28.9011356389
  H         3.6882544040        5.9353048054       28.9231594329
  C         2.4519307730        5.3809470368       30.6402026743
  H         4.9263509426       -1.6305844364       32.3386359040
  C         4.4854876729       -0.0918145740       33.6087807601
  H         6.2007729994        0.6939367133       18.0926791291
  H         6.6417563159        2.1178614460       17.1164325572
  C         4.7476776333        2.1283293645       17.6839753522
  H        12.5774724854        1.1234569850       22.1687824995
  H        13.0023233321        1.1604801724       20.5141913047
  C        13.9895738191        2.6447926583       21.7818023588
  N         9.9408877259        8.7120275639       18.1478688535
  C        10.2207062445        8.4933292763       15.8631849931
  C        10.2562765946        6.3824903294       14.6712161140
  H         9.8516866997        4.5417500805       15.8541776516
  H         3.3127512177        5.0720307497       31.2680283821
  H         2.1826460638        6.3405104766       30.9272270788
  H         1.6144986849        4.7276111475       30.8304841851
  S         4.2235340633        1.5480180793       33.9738878891
  C         4.5950903658       -1.0276263151       34.7865006418
  H         4.6661716367        3.0672896880       18.1810209039
  H         4.5067085953        2.2395985496       16.6265299735
  C         3.6082584446        1.2136930215       18.2737058923
  H        13.7369471699        3.2706966438       22.6304107057
  H        14.2108929265        3.2794004149       20.9600620605
  C        15.1932143129        1.7460373656       21.9731109704
  S         9.7646746508       10.2399942053       17.5778422958
  N        10.3208509117        9.8732869932       16.0790463968
  C        10.4154129585        7.8330973958       14.6492346396
  H        10.4629659130        5.6653089011       13.8262761130
  C         4.2571930081        1.0137633313       35.6768674167
  N         4.4043103075       -0.3061579116       35.9030094865
  O         4.8197906238       -2.2204902376       34.7650920371
  H         2.6422080578        1.7749752053       18.3072659323
  H         3.7808774222        1.0760040144       19.3629965438
  C         3.2995901158       -0.0498534180       17.4813778553
  H        15.0475139906        1.2065787223       22.8709186370
  H        15.1498119473        0.9693281389       21.1747861977
  C        16.4129021423        2.5485044219       21.9389938515
  C        10.7750585201        8.6283452103       13.5735650145
  S         3.8637748421        1.9096547275       37.1081669756
  C         4.4385430729       -0.9863693149       37.2474284507
  H         2.8712300585        0.1917846986       16.5588464393
  H         4.2041309807       -0.5922496441       17.1516439075
  C         2.2717714048       -0.9642234245       18.1640623829
  H        16.3910254760        3.5432812202       22.3927160616
  H        16.7173075345        2.6863293564       20.8571706568
  C        17.4970157868        1.7811866393       22.6267520080
  H        10.5054423924        9.6976013301       13.5602579299
  C        11.2623573858        8.2647770837       12.3543063521
  H         3.7736808141       -0.5663131338       37.9517637950
  H         4.1687564130       -2.0496516631       37.2045979211
  C         5.8951780428       -0.9535858669       37.8517708537
  H         1.3885925998       -0.3539491228       18.4544513946
  H         2.7586821534       -1.3129536491       19.0619545781
  C         1.8006807927       -2.0828487676       17.2322640072
  H        17.5172300990        0.7834203864       22.2705004295
  H        18.4250402173        2.1344241865       22.2838718281
  C        17.3330505905        1.9747839438       24.1497977986
  S        11.9717650827        6.7748093807       11.9470663092
  C        11.3164423792        9.2597132662       11.3032270298
  H         5.8432922587       -0.3416477828       38.7593194453
  H         6.2999146986       -1.9745504051       38.0220060251
  H         6.5068183118       -0.4326268408       37.1580426765
  H         1.1321243767       -2.7387576232       17.7993547835
  H         2.7650415402       -2.6063153708       16.8833046525
  H         1.2577299984       -1.7134734772       16.3543003660
  H        18.3067064570        2.2052065569       24.5752981068
  H        16.9842735765        1.0743067458       24.5602675958
  H        16.6111406442        2.7300991691       24.2984340972
  C        12.2023655664        7.4145424513       10.3529623138
  N        11.9455115942        8.7372798073       10.2256444269
  O        10.7416149758       10.3798646649       11.3311926905
  S        13.0116820531        6.5412511865        9.0301222708
  C        11.9466050277        9.4699314692        8.9378445286
  H        12.1877905296       10.5147786193        9.0629081528
  H        12.8475299650        9.0591145562        8.4855585142
  C        10.6904951415        9.2034302637        8.0925464859
  H         9.7669176972        8.9544402014        8.6560705463
  H        10.3662071799        9.9124481912        7.3389469768
  H        10.9515295643        8.3622602880        7.4918823578
  H         4.4627533451        1.7757533064       12.7661083566
  C         3.7179124847        2.5391609019       12.6756395645
  H         4.1316893592        3.4725216194       12.9091503425
  C         2.9856303397        2.6365326865       11.2843732692
  C         2.6361229555        2.3346368583       13.6298371944
  C         4.0939854179        2.8147829111       10.1513964624
  H         2.1181602762        3.3788380950       11.2962878611
  H         2.4372366467        1.6686007553       11.1534729407
  H         3.2497992866        2.0054430483       14.4764793757
  H         2.0262757980        1.4668646184       13.3838020717
  H         2.0781458842        3.2199271960       13.9226750752
  C         4.4330165378        1.5493798079        9.4505559344
  H         3.6863438796        3.4979314884        9.4324910962
  H         4.9282456292        3.3053058876       10.6048749208
  C         5.2458320393        1.8822551058        8.0918458241
  H         3.5352763963        1.0262896847        9.1466653990
  H         5.0190253089        0.8876608610       10.1881643533
  C         6.4759934464        2.7133384858        8.2752648204
  H         4.6278197164        2.6058686997        7.5689619972
  H         5.4065849507        0.9868970629        7.3483294734
  C         7.6518183501        2.0247668308        8.9137696514
  H         6.8954159400        3.1359377739        7.3506811660
  H         6.2205478592        3.6081747840        8.8372278036
  C         8.8467310597        2.9157837315        9.1966554165
  H         8.0590239630        1.1409300691        8.3285446040
  H         7.2486733069        1.6430601722        9.8534507508
  C         8.5325885819        4.2456646294        9.8882893360
  C         9.3052086817        3.6563067439        7.9264451090
  C         9.9861096326        2.2628589450       10.0162221503
  C         8.7490858759        5.3913971132        9.1116006062
  C         7.8654767507        4.5856739614       11.0925845459
  C         9.2277740975        5.0131623343        7.8257514609
  C         9.8147698492        3.0212056650        6.7560584692
  H         9.5544406128        1.9712279715       10.9606509511
  H        10.4416455954        1.4064531570        9.4223077366
  C        11.2810133968        3.1627904926       10.2328551087
  S         8.3714680741        6.9103849481        9.9160427191
  C         7.8395458328        5.9563780954       11.2642761881
  H         7.4338706515        3.8336459681       11.7500310931
  C         9.5963985608        5.6571323498        6.6743502516
  H         9.9603886425        1.9613904028        6.7341776316
  C        10.0880957070        3.6380573714        5.5604053497
  H        10.9745619429        4.1334508701       10.4904316992
  H        11.6086068384        3.3032940243        9.1727765517
  C        12.3306823585        2.6000718573       11.1829458142
  C         7.3147838687        6.5741575288       12.5739012901
  C        10.0705635922        4.9758631400        5.5166339803
  H         9.5013754603        6.7366678103        6.6233396182
  C        10.5478389120        3.1614040562        4.3209637167
  H        13.2635577735        3.1516403396       11.1266327639
  H        12.5272807515        1.5867403304       10.9822914073
  C        11.7161855352        2.5358701326       12.6055494228
  C         7.4861618086        7.9531295421       12.9021537522
  C         6.7384444180        5.6433168211       13.6399539113
  C        10.4328041705        5.6476617937        4.3009449544
  C        10.6760263855        4.3229134955        3.5168589605
  S        10.7718753045        1.7100504163        3.5478569364
  H        11.1177329620        3.3529460372       13.0110108000
  H        10.9777135762        1.7350854465       12.4472108671
  C        12.7137099400        2.0841307287       13.6294412157
  N         7.9314604260        8.9477833226       12.0717551143
  C         7.2774161512        8.3923765914       14.1798537148
  C         6.4776962270        6.1483803442       14.8955892692
  H         6.4964716698        4.6403253360       13.3805419657
  C        11.7562560527        6.4150062250        4.5072572270
  C         9.2677726662        6.5760495874        3.6434735827
  C        11.0916040111        4.0023160977        2.2413820200
  C        11.2371475355        2.6243572047        2.0854600128
  H        13.6403021965        2.6234950303       13.5092791424
  H        12.9507628099        1.0228678368       13.5275958415
  C        12.2608442324        2.5021690429       15.0342304138
  S         7.6765183199       10.4070930694       12.8237830126
  N         7.3436168794        9.8331616100       14.2612434678
  C         6.8394494204        7.5557770809       15.2429453871
  H         6.1358572615        5.4087551162       15.6833137867
  H        11.5565689017        7.1504127648        5.2974909787
  H        12.0951422525        7.0240975564        3.6597321142
  C        12.9254841007        5.5966303759        5.0234648574
  H         8.8169960881        7.1276789123        4.4601968496
  H         9.7202963751        7.2043994559        2.8505774781
  C         8.2147598156        5.7337404282        2.9887895528
  H        11.2961289405        4.8139690486        1.5226822416
  C        11.5698412463        1.9043289837        0.7994319673
  H        11.9189642694        3.5065989510       15.1866774385
  H        11.3856906554        1.9599979643       15.3218188171
  C        13.3867951282        2.1350798772       15.9417646192
  C         6.6851428019        8.1334692496       16.5533013557
  H        12.7590573476        5.0320838897        5.9317269815
  H        13.2782287036        4.8251046148        4.3554841923
  C        14.2135053692        6.4287208508        5.3076094147
  H         7.9153238180        4.9699519038        3.6670531922
  H         8.7091884122        5.2846249183        2.1464770738
  C         7.0307400293        6.6077784625        2.4761154190
  C        11.5211429934        0.5035297202        0.6120803258
  C        11.9059618936        2.7713748800       -0.3468713315
  H        14.2962081803        2.6162807341       15.6662308629
  H        13.5187668604        1.1262646717       16.1296156642
  C        13.0253853670        2.6530352320       17.3641564707
  H         6.8147257390        9.1609945105       16.4682328274
  C         6.3033912155        7.6389825867       17.8213994641
  H        14.1402460114        7.1942555457        6.0653077037
  H        14.4866077532        7.0056824560        4.4457936167
  C        15.3215757953        5.5241351866        5.7736454320
  H         6.6835115921        7.1780950256        3.3560065914
  H         7.3293511775        7.3612232837        1.7525023556
  C         5.9748210541        5.7352550561        1.7861096569
  N        11.1448535331       -0.3748605865        1.5573938131
  C        11.8091637020       -0.0378580810       -0.6593128199
  C        12.3098124786        2.2662657324       -1.5067231111
  H        12.3427749999        3.7737364916       -0.1599407611
  H        12.7362278998        1.8006761687       18.1059459091
  H        12.1734844745        3.3663014307       17.3205802352
  H        13.9515221316        3.1727893086       17.7483830801
  S         5.8010416096        6.0755277870       18.2251185940
  C         6.3666267745        8.6509791793       18.9045017756
  H        15.0876799495        5.1273973996        6.8242957602
  H        15.3625369931        4.7118291802        5.0512771758
  C        16.6353767344        6.2784243169        5.6905256366
  H         5.3817441884        5.3336351618        2.5965032902
  H         6.5419639383        4.9654851730        1.2302328896
  C         5.0390831923        6.6371086432        0.9786122038
  S        11.1993420310       -1.8673462618        0.8418890777
  N        11.6882312437       -1.4525231233       -0.6358626030
  C        12.1770786629        0.8017632629       -1.7725559830
  H        12.5846369404        2.8929282407       -2.3044930362
  C         5.6116476825        6.7366107854       19.8341100617
  N         5.9612634001        8.0397264109       20.0079654406
  O         6.6972066745        9.8353683910       18.7692150848
  H        17.1107225764        6.0657369407        4.7003689478
  H        16.5044715010        7.3180732905        5.7999294992
  C        17.5832755487        5.6840711875        6.6600107131
  H         5.6920124220        7.3230182252        0.3385380804
  H         4.4300552395        6.0322133289        0.3223497509
  C         4.0789225754        7.5304786922        1.8331649842
  C        12.4576398001        0.0942706787       -3.0253925841
  S         5.2617477439        5.7231697977       21.2701619831
  C         6.0244440468        8.7328539146       21.3535992186
  H        17.2966432616        5.8297524744        7.7002707817
  H        17.6872230159        4.6400796553        6.5184420932
  C        18.9255399270        6.3896960203        6.5737125590
  H         4.7033863195        8.0577595085        2.5265287777
  H         3.4949744841        6.7425471923        2.3127716359
  C         3.2308922231        8.5010915330        0.9410819759
  H        12.2921768094       -0.9500768780       -2.9259559536
  C        13.0643516996        0.4246767337       -4.1547806683
  H         5.4863226021        8.3382785384       22.2429473549
  H         5.3523564049        9.5038054135       21.3006150432
  C         7.4326619423        9.0970202618       21.8528339214
  H        19.4890893453        6.1662837867        7.4698749915
  H        18.8348516447        7.4527237758        6.4083149658
  C        19.7500407503        5.8783778224        5.4141980757
  H         3.5515630156        8.2203748086       -0.0458495468
  H         2.2174113171        8.3030672936        1.1341414886
  C         3.5232566836       10.0108578174        1.2477962483
  S        13.8695351736        1.9560664106       -4.6114786472
  C        13.1946712265       -0.6024857108       -5.1563991026
  H         8.1516209831        8.9922178923       21.0526611950
  H         7.7064563307        8.4095489070       22.5995636881
  H         7.4406696259       10.1003813847       22.2565634004
  H        19.4764799126        4.9447081657        4.8685744850
  H        19.6738786611        6.6003996465        4.5956238423
  H        20.7749369613        5.7204546121        5.6615729234
  H         3.8814685298       10.6327651278        0.3519492601
  H         2.5837970862       10.4345719745        1.5646814717
  H         4.1921277902       10.1569058837        2.1020404899
  C        14.1947700828        1.1777170576       -6.1993384936
  N        13.8566796303       -0.1568731746       -6.2518818607
  O        12.7006068294       -1.7339284242       -5.0247798457
  S        15.2835657382        1.6464932734       -7.5012224898
  C        14.1174200113       -1.0278288223       -7.4096711143
  H        14.0334698576       -2.1260103547       -7.1330775960
  H        15.1258744883       -0.8768249371       -7.7012247722
  C        13.0735442806       -0.9675904334       -8.5486236424
  H        13.0223853622       -1.9048441483       -9.0971337382
  H        13.2076427031       -0.0578256909       -9.0679858064
  H        12.0503541337       -0.8604504727       -8.1798457146
