352
 i =     6000, time =     3000.000, E =       174.0748818864
  H        12.0545513274        4.8773713377       31.7668957140
  C        11.0933199822        5.3186706711       32.1783711430
  H        10.4461936565        4.4961874170       32.4604579941
  C        10.2832078355        6.1949900065       31.1715653857
  C        11.3258348222        6.1858429942       33.4369777288
  C        10.1952925074        5.6175614974       29.7411521043
  H         9.3098106990        6.3726618764       31.6457607824
  H        10.7974022323        7.1432410748       31.2794818853
  H        12.0162851136        7.0454529468       33.2466131916
  H        10.4345608601        6.6905388704       33.7287176792
  H        11.6450699798        5.5877350637       34.2990813418
  C        10.4534038114        6.6239067720       28.5847763693
  H         9.0570474426        5.3699689256       29.6244970592
  H        10.7135972252        4.6186040866       29.6300196887
  C        11.0047035604        5.9443000134       27.3764519328
  H         9.6101297019        7.0986431132       28.2486340668
  H        11.1126048525        7.4052585506       28.8837759347
  C        10.0965263143        5.1283926944       26.4886700229
  H        11.8561536189        5.3120650040       27.6035304295
  H        11.3539824759        6.7432309039       26.6847701567
  C         8.8107216736        5.8851966927       26.2451856038
  H        10.5372103024        4.9288832413       25.5269913669
  H         9.9237950582        4.0931378183       26.7856489468
  C         7.6908500078        5.0779216485       25.5145019311
  H         8.2486472762        6.2122704206       27.1686321906
  H         9.0061834453        6.7868173623       25.6231551284
  C         7.3282027538        3.7453087025       26.1816884386
  C         8.2067737420        4.4146610387       24.1772859829
  C         6.3054767785        5.8767038995       25.4168237125
  C         7.5902713358        2.7101228377       25.3276215974
  C         6.7451138261        3.4093754246       27.3685179935
  C         8.0301724865        3.1219780062       24.0902118692
  C         8.5832097923        5.1448000606       23.1023948888
  H         6.5876119350        6.8213127471       24.9307054416
  H         6.0307551884        6.3484039960       26.2667171781
  C         5.1247974654        5.0733803990       24.7983530843
  S         7.0959253845        1.1711979073       26.0028139257
  C         6.5418585262        2.0421385792       27.4260658328
  H         6.5895258074        4.2499874437       28.0644079800
  C         8.2718089355        2.5660839460       22.9339083299
  H         8.5929449045        6.2520768261       23.2104834805
  C         8.9563548493        4.5445232421       21.9239456813
  H         5.4460315032        4.7067756309       23.7428696758
  H         4.6674100169        4.2992102033       25.2360754761
  C         3.8261867770        5.9478617421       24.5580222476
  C         6.0073823874        1.2728554474       28.6705052389
  C         8.7439507712        3.1816278019       21.7842474709
  H         8.2618617678        1.4226337369       22.9379067090
  C         9.2517959670        5.0062471737       20.6318714920
  H         3.1323696931        5.6250011281       23.8656538472
  H         4.1463649821        6.9702370945       24.2190325584
  C         3.1497033789        6.3937855690       25.8742579435
  C         5.9544302430       -0.0999807065       28.9018178115
  C         5.5214612484        2.0986606984       29.8169239412
  C         9.0289388349        2.5038622728       20.4829757003
  C         9.5059582221        3.8849458791       19.8187613462
  S         9.6606259892        6.5108146500       19.8953382244
  H         2.5534924967        7.3271805195       25.7095138079
  H         3.8513055738        6.8908570591       26.5754665398
  C         2.2349453483        5.2634650155       26.4419856588
  N         6.2768685440       -0.9886968836       27.9006946900
  C         5.7153148876       -0.6758676683       30.1401622047
  C         5.1884596426        1.5653907664       31.0724961284
  H         5.4287286515        3.1487802214       29.6425099299
  C         7.9385948098        1.7799633618       19.7827620549
  C        10.3121038185        1.5942068690       20.5879952594
  C         9.9164666595        4.2385882061       18.6173019555
  C         9.8480566843        5.6520045521       18.4439894968
  H         1.3282925610        5.2403863314       25.7386860487
  H         2.6099042523        4.1904287937       26.5561349045
  C         1.7980186888        5.6604141936       27.8422690967
  S         6.3155988946       -2.5086656646       28.5876133987
  N         5.8358669658       -2.0681944365       30.1086658331
  C         5.3363182160        0.0768003331       31.3005767595
  H         4.8888857007        2.2340348687       31.8074264210
  H         7.5105424636        1.1993547855       20.6430394651
  H         8.3136600577        0.9490312955       19.2456034719
  C         6.8390614416        2.6119122750       19.0059575492
  H        10.5456703883        1.0488541624       19.6251091185
  H        10.2339132625        0.8093646548       21.2654362192
  C        11.6146462781        2.2907894266       20.8519115608
  H         9.8409140454        3.4558960923       17.9437900528
  C        10.0317150297        6.3938859660       17.0840207444
  H         0.8352998836        5.2002986804       28.1186030610
  H         1.4324143962        6.7228870127       27.8663176867
  C         2.7406533905        5.1417824223       28.9434911299
  C         4.9980542283       -0.4942293302       32.5349516129
  H         7.3189884282        3.0910716146       18.2231744620
  H         6.4581828873        3.4445726800       19.6363754839
  C         5.7092338252        1.6938875256       18.6496776146
  H        11.5149098107        2.9698200760       21.6913405172
  H        11.9724319234        2.8073101498       19.9421195186
  C        12.8427967781        1.2716040111       21.0549132898
  C        10.2414817714        7.7505326398       16.8539845911
  C        10.1646474287        5.5942775217       15.8855480146
  H         2.7523259104        4.1191043721       29.0869631629
  H         3.6150575871        5.6098268841       28.6167476882
  C         2.2422091373        5.6942448722       30.2485971158
  H         5.2419058641       -1.4913236921       32.5413088962
  C         4.7610270088       -0.0585378639       33.8277127467
  H         5.1297794195        1.5026021922       19.5642569307
  H         6.0856134302        0.8297101630       18.0863820370
  C         4.6554772519        2.4125977211       17.7667982071
  H        12.7099046649        0.6479937700       21.9736322320
  H        13.0459263142        0.5678800124       20.2414035187
  C        14.1204866356        2.0940083419       21.4030428110
  N        10.2638909266        8.6530861661       17.9724557064
  C        10.4296099770        8.3861939329       15.6163154847
  C        10.3277588953        6.2042140152       14.6521985976
  H        10.0924564955        4.4909705504       15.9490213620
  H         3.0484561601        5.6937476664       31.0362865242
  H         1.7835997450        6.6579407214       30.3152051502
  H         1.4923164137        4.9197020017       30.5366806451
  S         4.3933007378        1.5136046364       34.3370149000
  C         4.7883842486       -1.0652396185       34.9326724748
  H         4.5567794216        3.4364508080       17.9093074572
  H         4.9980214872        2.2693308661       16.8074809091
  C         3.2867787445        1.6828571396       18.0048519375
  H        14.3353576843        2.8331492733       20.6293813216
  H        14.9608443601        1.4721648079       21.2152332925
  C        14.4460059218        2.4212743832       22.8494068918
  S        10.4140897346       10.1665546783       17.3895842742
  N        10.6563852508        9.7835888605       15.8039013129
  C        10.5195347241        7.6790972572       14.4090081540
  H        10.4663931064        5.5649433363       13.7354880248
  C         4.3351037526        0.8669757131       36.0366919367
  N         4.4637539687       -0.4723276875       36.0488611863
  O         5.1597770183       -2.1659763935       34.7531219834
  H         2.5553243535        2.2197036630       17.2770717075
  H         2.8975855693        1.6936712337       19.0298488554
  C         3.4076286472        0.2544968294       17.4925395249
  H        13.6150808004        2.9740824221       23.2459908730
  H        14.5481547809        1.4746476708       23.3841533666
  C        15.6129265871        3.4438620094       23.1891276558
  C        10.9505682748        8.4098747337       13.2851192508
  S         3.9481045278        1.8389631383       37.4237448681
  C         4.4499067864       -1.0783764149       37.4319785267
  H         2.6696618016        0.2636907033       16.7260033090
  H         4.2926971107       -0.0061209808       16.8572919750
  C         3.0747324991       -0.8181994506       18.5666582006
  H        15.1804291327        4.2186806979       23.7815279152
  H        16.0513078650        3.8939100470       22.2502907572
  C        16.7575841585        2.7081125889       23.7451038599
  H        10.4943170324        9.3942990194       13.2921081593
  C        11.4506120702        7.9744410677       12.0701392788
  H         3.7798621995       -0.6745398382       38.0638853408
  H         4.1155424977       -2.1012293577       37.2975835106
  C         5.8694012974       -1.2099804801       37.9927955590
  H         3.7453916513       -0.6944927411       19.5129621790
  H         3.3781426914       -1.7673574845       18.1472346499
  C         1.5529837329       -0.9597475589       18.9341499914
  H        17.1620499945        3.3840081765       24.4168620996
  H        16.4438879212        1.7695601124       24.2463959102
  C        17.8882813380        2.4772482430       22.7243270176
  S        11.9722677442        6.4091870515       11.7227029930
  C        11.6354392912        9.0092799449       11.0157994677
  H         6.1225402574       -2.1917682837       38.2345304696
  H         6.4132057372       -0.6185737203       37.2662751217
  H         5.9775291989       -0.5764642326       38.9317179148
  H         1.3565014962       -0.4394848995       19.8448472189
  H         1.2294366962       -2.0298180783       19.0051610844
  H         0.8631624433       -0.5821083145       18.1308079502
  H        18.0421629687        3.3579699366       22.0662435897
  H        17.7431661761        1.7255449977       21.9992070767
  H        18.8732210554        2.1714106875       23.3049865031
  C        12.3943287741        7.0028978640       10.1542602868
  N        12.3284064993        8.3512945937       10.0532077825
  O        11.3146200957       10.1580775199       11.1425980412
  S        13.1893524646        6.1649835933        8.7750824859
  C        12.6228622067        9.1112302111        8.7409598184
  H        12.8046327207       10.1676945315        9.0520920096
  H        13.6009391775        8.8083515122        8.3851093240
  C        11.4195065234        8.8203408385        7.8421878965
  H        10.5666682599        8.6044035088        8.4524863894
  H        11.2236250345        9.6767614083        7.3897507979
  H        11.6308269654        8.0735139532        7.1115943724
  H         4.6867968047        1.6487152809       13.0206216478
  C         4.0073086197        2.3990597908       12.9803848587
  H         4.6356676088        3.3329958570       12.9697362807
  C         2.9051225960        2.4838245325       11.8691225705
  C         3.3362020413        2.3476378975       14.3353033469
  C         3.4155280690        2.6271441050       10.4040899257
  H         2.2052178487        3.2353215956       11.9644870863
  H         2.3859010123        1.4983373342       11.9465101919
  H         2.4026355716        2.6299237346       14.2669228982
  H         3.7355231969        3.0972809662       14.9409303714
  H         3.5302409112        1.4124121439       14.8590523428
  C         4.1289656555        1.3046977247        9.9350277873
  H         2.6018865409        3.0314630908        9.8778065135
  H         4.0420172196        3.4608218279       10.3367817233
  C         4.9297340308        1.4813708113        8.5638292792
  H         3.2809577570        0.6261223700        9.8288334884
  H         4.7806129783        0.8585489640       10.6081383388
  C         6.2747896598        2.2785173867        8.7467424764
  H         4.2758231790        2.0226384990        7.8595624459
  H         5.0391818318        0.4815621810        8.0600645128
  C         7.5314430512        1.5609093258        9.3360266395
  H         6.5209330527        2.7835479349        7.7955518665
  H         6.0096807241        2.9961463147        9.3739667724
  C         8.7815966836        2.5189672203        9.2469544417
  H         7.7002295940        0.6144751271        8.8299290495
  H         7.1822731894        1.4207327091       10.3651869421
  C         8.3721765630        3.8114118196        9.8681137221
  C         9.2012922714        3.1174767591        7.9786231144
  C        10.0009690022        1.8983742347        9.9670590516
  C         8.6843412328        4.8840782251        9.0785031365
  C         7.9376875548        4.2128294978       11.1452869765
  C         9.1637167680        4.4671656409        7.8624318930
  C         9.7043211283        2.4977612409        6.8185233990
  H         9.7862825142        1.5034255808       10.8582944449
  H        10.3379672957        0.9240429102        9.4693842302
  C        11.2432738134        2.8831165114       10.1479991722
  S         8.2963896933        6.4457265797        9.7836507623
  C         7.8294077771        5.5862762155       11.2507354844
  H         7.8309644619        3.4748403422       11.9686334718
  C         9.5729601231        5.1151166324        6.7393126070
  H         9.6706560955        1.4486933861        6.6958872894
  C        10.1899769623        3.1396063965        5.7326387349
  H        10.9317397978        3.7852088671       10.6883720020
  H        11.6877125435        3.2962752030        9.2626747835
  C        12.2733938731        2.2973086951       11.0191514595
  C         7.6521204030        6.3475401111       12.5563864068
  C        10.0722926949        4.4725843129        5.5403184434
  H         9.5173043242        6.1921166953        6.7437866939
  C        10.6206842239        2.7540772104        4.4374597604
  H        13.1362667477        2.8180256028       11.0992313735
  H        12.5171757981        1.2975349744       10.6027449618
  C        11.7413621239        2.1183233255       12.4780841264
  C         7.6751074089        7.6839966047       12.7653498243
  C         7.3001503957        5.4094821177       13.6774484993
  C        10.6418271917        5.1740156220        4.3403297649
  C        10.8274977102        3.8994290627        3.6818284558
  S        10.8732502537        1.2716475993        3.6165227155
  H        11.0907718377        2.9426964997       12.7571493900
  H        11.1792278595        1.1711640156       12.6159113711
  C        12.8744501976        1.9772473453       13.4681399098
  N         8.0265928225        8.6731793453       11.8468151709
  C         7.3995000802        8.2098163712       14.0595726519
  C         6.9755140040        5.9631286750       14.8514446280
  H         7.1329387458        4.3164228335       13.7424629143
  C        11.9109899069        6.0152844591        4.6362584430
  C         9.5025521739        5.9663183488        3.6635434401
  C        11.3025391632        3.6112833281        2.4314315314
  C        11.2666518504        2.2492068593        2.2085767747
  H        13.8338815838        2.5554522204       13.3796886223
  H        13.1642623716        1.0190552185       13.1266993690
  C        12.3498017597        1.9043015426       14.9006952415
  S         8.0923716602       10.0964067177       12.6761999341
  N         7.6367437241        9.6267338407       14.1908853488
  C         7.0042728769        7.4342449214       15.1075469831
  H         6.5502027423        5.3268752542       15.6320548790
  H        11.6811808436        6.6644957097        5.4781575798
  H        12.1650575286        6.7257766855        3.8476593618
  C        13.1552122899        5.1595125458        5.1011844407
  H         9.2041009289        6.8457382318        4.2579792071
  H         9.9566745773        6.1999470103        2.7568979467
  C         8.2350581186        5.2715750708        3.2196586124
  H        11.4893165154        4.4081578146        1.8612979262
  C        11.5340654560        1.5896562120        0.8485428122
  H        11.7142358283        2.8123058116       14.9979269054
  H        11.7145288228        1.1337501207       15.1783822868
  C        13.4947143778        2.0069082595       15.8114325849
  C         6.8782067141        8.0783987004       16.3315727473
  H        13.0783231982        4.2558863529        5.8159064631
  H        13.3819062309        4.4843122851        4.2433995152
  C        14.4499332168        5.9012210966        5.3541532292
  H         7.7536348983        4.8736190028        4.0696143236
  H         8.2585609489        4.5434860449        2.2971887765
  C         7.1921396786        6.2234176610        2.5497766816
  C        11.6432107499        0.1751404261        0.5491819851
  C        11.7591961446        2.4937757817       -0.3012837632
  H        14.0459028773        2.9244754864       15.7954937132
  H        14.1450247899        1.1582100737       15.7265480632
  C        13.0195925539        1.9638594683       17.2670088188
  H         7.0353404208        9.1283417943       16.3570142650
  C         6.6078566257        7.6885529292       17.6446659461
  H        14.3187463252        6.7089992833        6.0875018754
  H        14.8174783643        6.3923576682        4.4767656609
  C        15.4207740794        4.9019936953        6.0423911590
  H         6.8838446877        6.8431835166        3.3941983158
  H         7.6472363902        6.8083259083        1.7878252327
  C         6.0990163559        5.4666610284        1.9140971768
  N        11.4272777616       -0.8276914727        1.5250762617
  C        11.9339201080       -0.3092192474       -0.6907576878
  C        12.0213576847        1.9429563087       -1.6033011617
  H        11.5603176084        3.5711980587       -0.0722712957
  H        12.2735601753        1.1685631084       17.4139039842
  H        12.7266095149        2.9452630046       17.6738711663
  H        13.8089112109        1.7531646476       17.8284536684
  S         6.4865961214        6.1174007227       18.1383582563
  C         6.5335167181        8.7899276207       18.6951851340
  H        15.0086514054        4.4010729087        6.8982908407
  H        15.6942060162        4.0044107440        5.3987473969
  C        16.6317330802        5.7118850280        6.6645946027
  H         5.5038527571        4.8684444570        2.5380349429
  H         6.4382620248        4.6932583200        1.1340640965
  C         5.0736943751        6.3731356363        1.1502529757
  S        11.4326872452       -2.2465392051        0.7770122745
  N        11.9451619491       -1.7070531812       -0.6987168227
  C        12.2355903536        0.5099131043       -1.8191909589
  H        12.0172684426        2.6432625008       -2.4270584041
  C         6.1043771834        6.7843693628       19.7837360333
  N         6.1202143341        8.1421182733       19.8187994217
  O         6.9317244104        9.9696492175       18.6248732520
  H        16.8727741631        6.6197741490        6.1834485094
  H        16.3561027835        6.3155929749        7.5817606929
  C        17.8375289224        4.8436686739        7.0568333668
  H         5.7344124701        6.6961778790        0.2053016797
  H         4.3035236838        5.5448307606        0.9936296496
  C         4.3425187562        7.4767162511        1.9859446502
  C        12.4475467358       -0.1802091139       -2.9790490331
  S         5.5786678937        5.9756841793       21.2142787761
  C         6.1865480176        8.9295653041       21.0635173383
  H        17.7361102192        4.5078709168        8.0360519800
  H        17.9271496657        4.0156092722        6.3732258739
  C        19.1589747309        5.6948573990        7.1290142341
  H         4.8741419750        7.8010341949        2.9103689737
  H         3.3418980116        7.0657571102        2.2286794870
  C         4.1224739625        8.6914117507        1.1254045638
  H        12.1654246643       -1.1539943332       -3.0732500146
  C        13.0477557213        0.1321724859       -4.1798413685
  H         5.6069202810        8.4003588093       21.8128392782
  H         5.6266333484        9.8754719324       21.0161717315
  C         7.5828942942        9.1151364125       21.6292817434
  H        19.8754245889        5.1169112800        7.6147235150
  H        19.0896881642        6.5938000351        7.7812022383
  C        19.9157226910        5.8789960204        5.7576014737
  H         4.1080715321        8.3871578692        0.1391591447
  H         3.1325852402        8.9964370226        1.3495059708
  C         5.1752439084        9.7626156233        1.2653996987
  S        13.5464038584        1.7237109530       -4.6442868212
  C        13.1541109236       -0.9039138131       -5.2355443660
  H         8.2959818437        8.5837771521       21.0116678244
  H         7.5675123737        8.5441946983       22.6123423592
  H         7.7713461259       10.1538304007       21.7377527033
  H        19.6486974088        6.8309284010        5.1678918136
  H        20.9172803470        5.9266778544        6.0043775401
  H        19.7926274396        4.9444624454        5.2225668567
  H         4.9951883823       10.2338220896        2.2209075898
  H         6.1968880468        9.3418851561        1.2826398368
  H         5.0414026924       10.4454322826        0.4918326462
  C        13.8359491474        1.0005679417       -6.2125004466
  N        13.6745325028       -0.3898025941       -6.3179834157
  O        12.9315333362       -2.0897074401       -5.0771595206
  S        14.6406356678        1.9026423502       -7.5069765567
  C        13.8576178660       -1.1670439726       -7.5457974304
  H        13.9293599970       -2.1195903378       -7.1620868371
  H        14.9038539114       -0.9784788195       -7.8953024843
  C        12.8021707666       -0.9355087043       -8.6278309560
  H        12.7254201019       -1.7713666181       -9.2990825668
  H        13.0622014858       -0.0086769744       -9.2010891238
  H        11.7610414445       -0.9291116802       -8.1922587605
