352
 i =   102900, time =    51450.000, E =       100.0111428473
  H        10.5630202679        4.4221149010       32.1189258589
  C        10.7844446028        5.4339541123       32.4558924613
  H         9.8756126032        5.9848326418       32.7152032647
  C        11.8162413609        6.0760812422       31.5201257040
  C        11.4441780999        5.1186868831       33.7646587418
  C        11.2279238331        6.3086342056       30.0860228719
  H        11.9746681832        7.0368980871       31.9030344494
  H        12.8217334634        5.6979905053       31.4334445027
  H        10.7198580957        4.5822663182       34.4412387914
  H        12.2781170556        4.4481148214       33.6288964251
  H        11.8053259882        6.0449726899       34.2977762793
  C        11.0197699089        5.0468778764       29.2364395245
  H        11.8245027548        6.9495411359       29.5551016031
  H        10.2444700920        6.8364003268       30.2051375413
  C        11.1144837481        5.2667370475       27.7392861423
  H        11.8094963162        4.2897539922       29.3993224547
  H        10.0384507755        4.5077042015       29.5334806083
  C         9.8030407635        4.7799809437       27.0650484245
  H        11.9576906759        4.7355379852       27.5155560310
  H        11.3237128059        6.3674118766       27.5564904882
  C         8.7948878249        5.8508045997       26.5989035845
  H        10.1649759382        4.1505623840       26.2681150202
  H         9.2358965251        4.1591110890       27.6782237587
  C         7.6241197132        5.3092074004       25.7124214627
  H         8.4843271373        6.5458047016       27.3381545330
  H         9.3492880011        6.5183516465       25.9762235541
  C         7.2059118589        3.9935447213       26.3548212518
  C         8.0097680551        4.5962503899       24.4276564386
  C         6.4252335329        6.2471178243       25.5893568716
  C         7.5423639362        2.8549246227       25.6335994400
  C         6.6290790721        3.7176803539       27.5882089663
  C         8.0168010050        3.2208598565       24.3957738491
  C         8.5871966567        5.1757091241       23.2622633897
  H         6.8046157562        7.1259972393       25.1267779070
  H         6.2024832740        6.4885940312       26.6601703731
  C         5.1985511747        5.5801092981       24.9234869597
  S         7.2576297413        1.4230508303       26.5872785387
  C         6.5667179751        2.3589106463       27.8807611011
  H         6.3270646795        4.5694734551       28.2044064065
  C         8.4402109005        2.6014246815       23.3018880430
  H         8.4985865938        6.2635326897       23.1165012207
  C         9.0197015596        4.4917064458       22.1655949264
  H         5.4921508644        5.4127953578       23.8637838738
  H         4.9220754558        4.6408538290       25.2827314714
  C         3.9934967064        6.5322586497       24.9452969763
  C         6.0397447729        1.7447947588       29.1793238535
  C         8.9503945811        3.1623064980       22.1156894480
  H         8.4109231928        1.5594728360       23.2849644027
  C         9.4263821913        4.8865060291       20.8357278810
  H         3.3730139254        6.0569631804       24.2163527641
  H         4.1849641508        7.5176525201       24.5744269618
  C         3.3248908056        6.7803322436       26.3069704585
  C         6.0532909830        0.3508224717       29.3539772940
  C         5.5673349649        2.6367132968       30.2988515241
  C         9.2828549275        2.4703667180       20.8723508644
  C         9.5810488834        3.7450636414       20.0912062978
  S         9.8417505723        6.3235031823       19.9421845356
  H         2.5097466344        7.4588876091       26.1059194798
  H         3.9638542440        7.2040233572       27.0657449484
  C         2.6667208755        5.4837428832       26.8856312171
  N         6.2756153345       -0.7083526425       28.4634411596
  C         5.7359026302       -0.1477827273       30.5798395979
  C         5.3533326838        2.0256146749       31.5495326919
  H         5.5054826669        3.7133244360       30.1258175346
  C         8.1177377392        1.6143493756       20.2622633113
  C        10.6191949269        1.6889387594       20.9638646179
  C         9.8835743593        4.0619704738       18.7527301389
  C         9.9869212944        5.4276823938       18.5164706069
  H         1.7389101200        5.3167663021       26.3602905905
  H         3.2226334306        4.5535386029       26.8042304422
  C         2.3778679238        5.7082541104       28.3726796347
  S         6.0025618780       -2.2083494779       29.1172592645
  N         5.7238073170       -1.5571416524       30.6320370301
  C         5.4094692527        0.5635613279       31.7805066022
  H         5.0831684172        2.6008810745       32.3519196964
  H         7.6308081283        1.0749881777       21.1264507676
  H         8.4834545849        0.7765051800       19.6153548219
  C         7.0921262727        2.3405737558       19.3515245294
  H        10.7816877865        0.8850583498       20.1664343650
  H        10.6262074681        1.1591849077       21.9158177474
  C        11.8117418894        2.5833255349       21.1765349657
  H        10.1236082399        3.2720811089       18.0949896647
  C        10.2219109695        6.0208580523       17.2044511150
  H         1.4026500789        5.2937909629       28.6274711768
  H         2.2090086626        6.8055277069       28.5241380731
  C         3.4525295305        5.2408623891       29.2758116674
  C         5.3248461854       -0.1496379544       33.0607308201
  H         7.6605661484        2.6124665628       18.3977220913
  H         6.7700949971        3.2173318322       19.8885209557
  C         5.9465473727        1.3419762555       19.1753196140
  H        11.6653215177        3.3379008570       21.9422399131
  H        12.1286971145        3.1653921033       20.3364175054
  C        13.1298351292        1.8470388722       21.5185768943
  C        10.3488476608        7.3951093889       16.9525071007
  C        10.4345712720        5.1529577603       16.0124450430
  H         3.6007758647        4.1666544646       29.2984657564
  H         4.3677738223        5.5974863645       28.8746293920
  C         3.2215419128        5.7111311506       30.6754440604
  H         5.4058488375       -1.2203875959       33.0074546118
  C         4.9936167595        0.2564276720       34.3301462516
  H         5.6677530791        0.9337196465       20.1338683316
  H         6.2769085574        0.4983044443       18.4627237755
  C         4.7912352285        1.9041108416       18.3853663561
  H        13.0003289275        1.4931029780       22.5505514926
  H        13.1302129300        0.8879910003       21.0278740511
  C        14.4790077564        2.6312448165       21.3609327931
  N        10.0883621223        8.4191210920       17.8933350424
  C        10.6692421354        7.9908184892       15.7438261660
  C        10.8385437237        5.7443432293       14.7999361720
  H        10.2710066947        4.0987497994       16.1670677709
  H         3.7065364128        5.0508649586       31.4044384720
  H         3.5683402329        6.7247477855       30.8222401067
  H         2.1340321298        5.6274001995       30.9320539299
  S         4.5212931667        1.8053915013       34.7829793123
  C         4.8022195023       -0.8303530965       35.3173787001
  H         4.4482271797        2.7000860925       19.0170417737
  H         5.1880461619        2.4440097142       17.5592148768
  C         3.5131940799        1.0498901007       18.0518359414
  H        14.3586480388        3.6189378012       21.8438615584
  H        14.6185828353        2.7641020871       20.3794198110
  C        15.5710362734        1.7787729340       21.9802515631
  S        10.2551917018        9.8822081794       17.2636729722
  N        10.7285644008        9.3604195200       15.7917747652
  C        10.9192887477        7.2330006585       14.5812780839
  H        11.0513687668        5.0170274389       13.9996768469
  C         4.1593935638        1.1119329537       36.3411141203
  N         4.3898693571       -0.2175553058       36.4455180757
  O         4.8346668383       -2.0471932279       35.0521655204
  H         3.3893281921        0.8243665386       16.9869097687
  H         2.6383044543        1.6129610029       18.3140286175
  C         3.4812454617       -0.2701683443       18.7655693433
  H        15.2491718178        1.6200588896       23.0184696868
  H        15.4967988968        0.9124331416       21.4186472541
  C        16.9714872506        2.4300884731       21.8835258421
  C        11.2212432835        7.9167820389       13.3605723571
  S         3.7159550344        1.9609419247       37.8279523990
  C         4.2515830111       -1.0376827605       37.6070546767
  H         4.3264642686       -0.8258972133       18.3591809456
  H         3.6753611029       -0.3935252849       19.8461686981
  C         2.2562674155       -1.1425371004       18.6193015690
  H        16.8521612031        3.5024198410       22.0476362264
  H        17.4492577064        2.2183366733       20.9146187534
  C        18.0672164255        1.9474901205       22.8618709960
  H        10.8442433273        8.8954548639       13.3258469104
  C        11.7152108658        7.5679631659       12.1684036582
  H         3.5125614170       -0.6384731189       38.3002913661
  H         3.9448034223       -2.0328647919       37.3369621504
  C         5.5880125880       -1.0122241973       38.4107038043
  H         1.4715828261       -0.4385650087       18.7962791662
  H         2.1922981372       -1.9964409936       19.2892250589
  C         2.1333809992       -1.7709223594       17.1948044648
  H        18.5220660694        0.9519484552       22.7323957952
  H        18.9590184245        2.5818617962       22.7527209677
  C        17.5714818193        2.0479253274       24.3120845814
  S        12.2112516555        5.9909511560       11.7032373693
  C        11.8401597390        8.5495866509       11.0981220153
  H         5.7097378632       -1.8998114599       39.0360604829
  H         6.4536238912       -0.8462444552       37.7270921922
  H         5.5996653621       -0.2432043456       39.1648970979
  H         2.7647752604       -2.7015933264       17.0636432841
  H         2.3098378644       -1.0790556838       16.3327974746
  H         1.0591382143       -2.0918531600       17.0644711564
  H        18.4426012736        2.0123451500       25.0096764909
  H        16.8092929712        1.2973035611       24.4548670208
  H        17.0543782980        3.0016328724       24.5406703654
  C        12.7473817401        6.7353157527       10.1972482863
  N        12.5123036571        8.0295060211       10.0605213411
  O        11.5271558085        9.7606096866       11.2455382702
  S        13.6905182884        5.9690559356        8.8859634294
  C        12.7746292710        8.8191617850        8.9064205165
  H        12.9004256026        9.8677037828        9.2788500115
  H        13.7576359685        8.7465095411        8.4432383826
  C        11.5477862749        9.0253051734        7.9952467396
  H        10.8156930021        8.1633038270        7.8960502243
  H        10.9965611641        9.9153247389        8.2844264255
  H        11.9626433579        9.1829147866        6.9694508236
  H         2.5488115982        3.2795675619       12.1970291670
  C         3.2101596614        2.3793862980       12.2850128273
  H         2.7795690246        1.5983175930       11.6056511167
  C         4.5589679402        2.7318009503       11.6730911858
  C         3.1636240271        1.7709697691       13.6867213731
  C         4.6127136052        2.8842025946       10.1752007606
  H         5.2843978602        1.9698093328       11.9948246970
  H         4.8392357142        3.6401616784       12.1854157741
  H         4.1050373159        2.0248742326       14.2367551890
  H         3.2707798280        0.7087011137       13.7146689433
  H         2.3621663528        2.2168374446       14.2273719367
  C         4.8857400184        1.5677668169        9.4353786201
  H         3.7034783105        3.3394930158        9.8046915383
  H         5.4130011911        3.6630660693       10.0757670202
  C         5.5584861166        1.8172397892        8.0745195600
  H         4.0181991993        0.9911200516        9.1624230715
  H         5.4459941626        0.9498288262       10.1740523459
  C         6.9451354846        2.4096819957        8.1828371310
  H         5.0533742847        2.5742666178        7.4344577989
  H         5.6145353349        0.8545934318        7.4665841722
  C         8.0265269281        1.5974360924        8.8849246950
  H         7.2505258762        2.6649043731        7.1452850165
  H         6.9448557333        3.3729118439        8.7311566242
  C         9.2791476595        2.4389500650        9.2277082306
  H         8.4189505533        0.8733421273        8.2179001787
  H         7.7195341593        1.1156431471        9.7937679808
  C         8.9967592396        3.7970061119        9.9093405556
  C         9.8439799623        3.1480878620        7.9838732736
  C        10.3164456175        1.5892429029        9.9969762881
  C         9.3692480478        4.8739310226        9.0993747758
  C         8.3374677625        4.1714528208       11.0595607419
  C         9.8600263038        4.4800944345        7.8654021195
  C        10.2220056807        2.5193623379        6.7544585016
  H         9.8156171958        1.2644152783       10.9289166326
  H        10.4971125201        0.6918877154        9.4527447081
  C        11.5416428500        2.4714905546       10.3265234300
  S         9.0129962055        6.3452409894        9.8532365120
  C         8.3468019033        5.5277397325       11.1674852994
  H         7.8789546750        3.4609272003       11.6772992295
  C        10.2721299218        5.1377765012        6.7158007856
  H        10.1206638942        1.4853918341        6.7691631904
  C        10.5472562094        3.1486935425        5.5848774179
  H        11.3664440103        3.3131012448       10.8027830670
  H        11.9747085225        2.8174062262        9.4174104851
  C        12.4804638675        1.6608695559       11.3178618882
  C         7.9180979249        6.3172780743       12.3899081230
  C        10.6285752072        4.5120376020        5.5084561367
  H        10.3004613828        6.2225599447        6.6876898702
  C        10.8747369562        2.8027253454        4.2849864955
  H        13.4942835860        2.0647503969       11.2152467315
  H        12.4933840285        0.5895514645       11.0540975471
  C        12.0439084622        1.6528160643       12.8007840459
  C         7.9680539187        7.6801623595       12.5960368602
  C         7.5237697275        5.5228530677       13.5775205048
  C        10.9664235794        5.2135650267        4.2417415636
  C        11.0720692277        3.9030136200        3.4898688036
  S        11.0849862242        1.2609089719        3.5904920754
  H        11.1745364298        2.2581704529       12.9760441817
  H        11.7459634215        0.6748822312       13.0925486894
  C        13.2278692617        1.9795662992       13.7003967932
  N         8.3130548547        8.6231884687       11.5969585792
  C         7.7299459405        8.2626833562       13.8297178359
  C         7.2652249800        6.0905169659       14.8500899851
  H         7.4362244423        4.4515284187       13.5243221098
  C        12.3695163675        6.0569152779        4.3214551331
  C         9.8652430213        6.1561843743        3.7782202768
  C        11.4312107738        3.5095111694        2.2179835710
  C        11.5216091151        2.1537987538        2.1002729947
  H        13.6615449952        2.9763676029       13.3727118979
  H        13.9891735077        1.2791563125       13.6011898592
  C        12.8358646057        2.1395937755       15.2279989082
  S         8.3664725053       10.0885593399       12.2799706632
  N         7.9500156819        9.6596472217       13.7199754009
  C         7.4797860017        7.5612908995       15.0370278865
  H         7.2461412718        5.3607995272       15.6420858999
  H        12.2394799038        6.8553105614        4.9727009199
  H        12.5834438479        6.3908576639        3.2862561285
  C        13.4717758805        5.2351053981        4.8356450920
  H         9.5701581793        6.6817055082        4.6987273271
  H        10.1533059300        6.8769728890        3.0315866987
  C         8.6269954318        5.3095910316        3.3755187712
  H        11.8235136975        4.2270490353        1.5475405231
  C        11.7483934538        1.4494720056        0.8020225004
  H        12.3830654557        3.1251646724       15.2924780772
  H        12.0483760198        1.4588675854       15.4101606458
  C        13.9552600844        1.8668647486       16.2062413483
  C         7.2381546657        8.2829317654       16.2669845864
  H        13.3231950570        4.8285765182        5.8837542596
  H        13.6320903100        4.3726435596        4.2170721345
  C        14.8028775654        6.0303697359        4.7670048460
  H         8.2174616468        4.8608937910        4.2833435807
  H         8.8190246819        4.4432966356        2.7482050734
  C         7.4764892330        6.0618723065        2.6792595197
  C        11.8797489416        0.0715066319        0.5781013880
  C        12.0884207057        2.2100986188       -0.4156275043
  H        14.9033800206        2.2526954174       15.7636446266
  H        14.0900979819        0.8058540109       16.2465807774
  C        13.6972977065        2.5653118013       17.5776008092
  H         7.3196986048        9.3223241196       16.1191910633
  C         6.9816831497        7.9048874550       17.5587644644
  H        14.8121133303        6.9353820946        5.4113712249
  H        15.0075307086        6.3961637112        3.7434754725
  C        15.9511021561        5.2693201270        5.2443211163
  H         7.1610679543        6.7336421703        3.4597355900
  H         7.9794298310        6.6959866548        1.8970149777
  C         6.5465054844        5.0408674905        1.9376239592
  N        11.7838510416       -0.9038221735        1.5994093160
  C        12.2852299644       -0.5096500698       -0.6450657839
  C        12.4233764016        1.5908578371       -1.5971953222
  H        12.0701308995        3.2750276790       -0.3367203293
  H        14.5257513222        2.5393856686       18.2639261203
  H        12.8392686129        2.0287619712       17.9043116758
  H        13.4460639580        3.6169831595       17.4665519111
  S         6.8714892408        6.2638120294       18.0854010296
  C         6.7762149848        8.9014797238       18.6158118090
  H        15.6530372625        4.1858492237        5.4489537964
  H        16.6592619551        5.2156515099        4.3660726715
  C        16.8068440643        5.8236914541        6.4645241316
  H         6.4796497332        4.1352708492        2.5097817668
  H         6.8434532243        4.8660205630        0.9014390548
  C         5.0820302606        5.5294545454        1.8320491990
  S        12.0356856218       -2.3722398832        0.9507980876
  N        12.3638336203       -1.8972062362       -0.5710717161
  C        12.6349169156        0.1763498195       -1.7719730394
  H        12.4563425064        2.1641084215       -2.5033630511
  C         6.5330334399        6.9909585623       19.6538479321
  N         6.4438470794        8.3036928126       19.7951382835
  O         6.7190217704       10.1300092526       18.3142850885
  H        17.3510888862        6.6933081175        6.2168022459
  H        16.0628649345        6.0888918033        7.1317883665
  C        17.8094627553        4.8358785569        7.0738658027
  H         4.4502563238        4.7450513739        1.4313267090
  H         4.6234956670        5.9015793383        2.7264689809
  C         5.0351496874        6.7250844053        0.9750268402
  C        12.7878087199       -0.5779623518       -3.0029624991
  S         6.0788633251        6.1294949487       21.1522956739
  C         6.2806325740        9.0274199152       21.0069492842
  H        17.3776951240        4.4385935089        8.0170194942
  H        17.9377124682        3.9386684693        6.4701887716
  C        19.1870530415        5.5316137951        7.3010630412
  H         4.5640629890        6.4614027098        0.0207483300
  H         5.9822992650        7.0617112303        0.5574034897
  C         4.2641259317        7.9452224301        1.4811031819
  H        12.5896297682       -1.7002213406       -3.0115218913
  C        13.3450800872       -0.1631242622       -4.2026504760
  H         5.6453784501        8.5575844935       21.7437726768
  H         5.6505632755        9.7769373713       20.6719981318
  C         7.5321320267        9.4395583465       21.6807589842
  H        19.7675807272        5.0279157104        8.0772069618
  H        19.1023801474        6.5654723227        7.6401783756
  C        20.0486400268        5.6139754425        6.1127490688
  H         4.2603522230        8.7727838156        0.7824495809
  H         3.1780467634        7.7719329376        1.7156045716
  C         4.7734568634        8.6163207642        2.7167652506
  S        14.1504468107        1.2815959391       -4.5473806898
  C        13.3983116088       -1.1965871690       -5.2851758407
  H         7.6757679633       10.5375133689       21.6942687242
  H         8.4010025274        9.0063948368       21.1514477089
  H         7.5428410062        9.0785706310       22.6617621470
  H        20.1280848952        4.5248209932        5.8707963268
  H        19.4935844570        6.0687591161        5.2688493832
  H        20.9714676280        6.0333535400        6.3050611654
  H         5.7245455097        9.1543895251        2.4279304435
  H         4.0889057290        9.2243747947        3.1990317920
  H         4.9511185956        7.8843241748        3.4714926412
  C        14.4882171909        0.5120552151       -6.1263338025
  N        14.0759316834       -0.7231101494       -6.2652804964
  O        12.7488740817       -2.2331842134       -5.3288261567
  S        15.0367235744        1.3866320992       -7.5225409026
  C        14.3542938882       -1.5380109360       -7.4336307130
  H        14.7428314481       -2.5115588290       -7.1827247885
  H        15.3102731846       -1.1898104904       -7.7916853524
  C        13.2751672954       -1.3362952372       -8.5160860742
  H        12.3885243908       -1.0387042869       -8.0215826963
  H        13.0277469975       -2.3113349422       -8.9256055219
  H        13.4645604317       -0.5914866326       -9.2791671010
