352
 i =   132200, time =    66100.000, E =        99.4897543874
  H        10.3200218259        4.7572666848       32.6656367967
  C        10.9709205598        5.6118328313       32.8514062014
  H        10.3188798286        6.4022722831       33.3397534513
  C        11.4761476071        6.0477405661       31.4218109403
  C        12.0843560146        5.0743020871       33.7201735909
  C        10.4209774901        5.8657201022       30.2066047267
  H        11.9331167122        7.0621874751       31.4329710108
  H        12.2716038336        5.3790812820       31.2109880364
  H        12.7725665504        4.4852653918       33.0735088426
  H        12.7214597143        5.8572730160       34.1899748748
  H        11.6928660551        4.3293180173       34.4066483686
  C        11.0105976436        5.4409325155       28.8767647759
  H         9.8575643649        6.8117465539       30.1336578309
  H         9.7126937259        5.0875031018       30.6310981518
  C        10.4149296084        6.0621543535       27.5963449567
  H        12.0936346266        5.7197204913       28.8305451897
  H        11.0878826530        4.3364219797       28.8804463208
  C         9.2320917872        5.2700738796       27.0521363693
  H        11.1599578053        6.0796809556       26.8238755654
  H        10.1320819574        7.0254923588       27.8842338471
  C         8.1829818468        6.1566731203       26.3746657303
  H         9.5587474440        4.3750233938       26.4902601631
  H         8.7265507000        4.8727358132       27.9347580542
  C         7.1232113884        5.3561178978       25.6336432520
  H         7.6818302247        6.7986465204       27.1252409439
  H         8.6704132993        6.8190792807       25.6134533654
  C         6.7369190334        4.0753010466       26.2497759264
  C         7.6829154610        4.7035504176       24.3618929178
  C         5.8930325150        6.2860114705       25.4178735872
  C         6.9443320435        2.9819704600       25.3862829414
  C         6.2181809667        3.6505871926       27.4966561137
  C         7.4590445732        3.4234611923       24.1586299280
  C         8.1192012559        5.3161291968       23.2079037125
  H         6.2123015180        7.0595954382       24.6270854064
  H         5.6442906740        6.9691197585       26.2522761136
  C         4.6772248591        5.6048459789       24.9003611006
  S         6.5290969012        1.4599637801       26.0497937641
  C         6.1761158455        2.2659107461       27.5896836955
  H         6.0221127443        4.4235431898       28.2001378034
  C         7.9025004661        2.7419923201       23.0617311761
  H         8.1944516292        6.4023192114       23.1674670601
  C         8.5036641621        4.6622444929       22.0783411922
  H         4.7781196078        5.5654730099       23.7998726304
  H         4.5588599877        4.6009756333       25.2084282979
  C         3.3903564629        6.4289879107       25.1328407697
  C         5.9008171826        1.4667894026       28.8563880480
  C         8.4439928657        3.3075278853       21.9451119318
  H         7.6151328535        1.6791152781       22.9358856549
  C         8.9870630050        5.0653690341       20.7983133814
  H         2.6102772832        5.9778668576       24.5311214331
  H         3.5698359448        7.4107322431       24.8068900720
  C         2.8753371565        6.4297298399       26.5824779154
  C         6.1213253836        0.0861550965       29.0889893031
  C         5.4507331164        2.2466237377       30.0235124179
  C         8.8685912278        2.6570463087       20.6970981438
  C         9.0915864424        3.9651650393       19.9594130147
  S         9.3621598097        6.6016594126       20.0533619419
  H         1.9759734011        7.1340305456       26.7684214557
  H         3.6313095893        6.8039669551       27.3357932964
  C         2.5467239791        5.0256138949       27.1510903131
  N         6.5141645142       -0.7627870316       28.1073249164
  C         5.8561733811       -0.5059437795       30.3100198063
  C         5.2682055888        1.6313675391       31.2636300768
  H         5.2247996986        3.2978239309       29.9219828524
  C         7.7012253656        1.9091218506       20.0191321845
  C        10.2226371173        1.9154947525       20.8347177124
  C         9.4653466816        4.4205010928       18.6574525778
  C         9.6436408597        5.7844819962       18.5459987534
  H         2.3239724164        4.4051507409       26.3303197096
  H         3.4670838456        4.5463408470       27.5452257270
  C         1.4114854150        5.0568793381       28.2191760154
  S         6.4732791343       -2.2891397515       28.7333715960
  N         6.1353336939       -1.8489237327       30.2367595849
  C         5.4301330962        0.1920302837       31.4224690608
  H         4.8016031657        2.1306963475       32.0444483568
  H         7.4022336609        1.0298768181       20.6234581700
  H         8.1527216803        1.5592669795       19.0632945316
  C         6.5325493559        2.8649612439       19.6919914366
  H        10.5460524842        1.7593727286       19.7570949616
  H         9.9832120150        0.9116209396       21.2068219280
  C        11.2957475296        2.6766823308       21.6386273277
  H         9.6742956466        3.6568827916       17.9289816161
  C        10.0608949895        6.5704438044       17.2610504533
  H         1.0763948171        4.0803768385       28.4018235776
  H         0.6704807003        5.6906801771       27.8245530243
  C         1.8449928984        5.8244897090       29.5233363408
  C         5.3042564347       -0.5427884492       32.6679636192
  H         6.7500129106        3.7376147102       19.0731634254
  H         6.0826249563        3.2903644304       20.5632865290
  C         5.4579732748        2.0217405208       19.1530462740
  H        10.9306669539        3.0881916179       22.5294862742
  H        11.7699190443        3.4549287242       21.0154413605
  C        12.4831642572        1.8760337254       22.0583832580
  C        10.1246137093        7.9798511480       17.1923641750
  C        10.3022903791        5.8170652964       16.0093858151
  H         2.0908569640        6.7625883460       29.2364736872
  H         0.9516213902        5.9943396696       30.1683688874
  C         2.9892035154        5.2057283740       30.3642462164
  H         5.3388871832       -1.6666627131       32.5981023293
  C         4.9626380963       -0.1140226085       33.9098501870
  H         4.7724672419        1.7900817657       19.9255086584
  H         5.7406452841        1.1112080607       18.7289625969
  C         4.6385834934        2.7845373837       18.0937920767
  H        12.1749309381        1.0388755991       22.5981812869
  H        13.0486692996        1.5719398418       21.1668360260
  C        13.4167333529        2.6133732027       22.9919893094
  N         9.8961052290        8.8627642944       18.2543830008
  C        10.4075509124        8.6651215712       15.9711727372
  C        10.4386144743        6.4376665735       14.7689635331
  H        10.2117702868        4.7038390994       16.0397041897
  H         3.1378169640        5.9205106016       31.1765127213
  H         2.7738718305        4.2294238620       30.7107446339
  H         3.7662335440        5.1493262410       29.6539586484
  S         4.6507318437        1.5196049081       34.4723544305
  C         4.9123584841       -1.1531635526       34.9717057641
  H         4.4499219509        3.8306166074       18.3205306486
  H         5.1808281055        2.7471326658       17.1440174646
  C         3.2205907692        2.1472576479       17.7865476963
  H        13.0152577570        2.5856725450       23.9430499460
  H        13.5526274958        3.6177392684       22.6516812531
  C        14.7709227087        2.0716693004       23.1948829566
  S        10.1326375532       10.3416402283       17.6504994597
  N        10.4014154163       10.0787330462       16.0715108314
  C        10.5978451630        7.9310727245       14.7648947920
  H        10.7111692363        5.7731052899       14.0357901978
  C         4.5213613655        0.7432256068       36.0932796385
  N         4.6021572468       -0.6143521335       36.1409885829
  O         5.0082841589       -2.3846823116       34.6847452527
  H         2.7668830172        2.7932223210       17.0887545349
  H         2.5637145465        2.1743880150       18.6731136765
  C         3.2913318419        0.7071825958       17.1743387715
  H        15.2331207215        2.3991732530       24.1167030864
  H        14.6655845939        1.0800960582       23.3128820689
  C        15.7000735929        2.4781476575       22.0623093780
  C        10.9805204356        8.6280927576       13.5833895914
  S         4.3921087385        1.6622056485       37.6188383099
  C         4.5489398749       -1.3581651876       37.3997540867
  H         2.3823482065        0.6052438060       16.5643833830
  H         4.2151730218        0.5525156915       16.6190426009
  C         3.0851088297       -0.4396619558       18.2512650439
  H        16.1472289455        3.4712920891       22.2515220609
  H        15.0387498643        2.5138623757       21.2532545231
  C        16.7871929718        1.4326930965       21.9263954962
  H        11.0384611768        9.6628613290       13.7117186697
  C        11.4921623846        8.1741155339       12.4097634433
  H         3.7817834724       -0.9629709784       38.0046298854
  H         4.2369139197       -2.4135968352       37.2439475646
  C         5.9110496635       -1.3832430159       38.0765629483
  H         2.1910258961       -0.2231942332       18.9300831411
  H         3.9989232099       -0.4387731817       18.8887130253
  C         2.8515355352       -1.7554403598       17.5699773338
  H        16.2741595327        0.4809809142       21.9890146599
  H        17.2870472472        1.4783771361       20.9705775253
  C        17.7514469700        1.6534302833       23.1063426398
  S        12.0284668743        6.6236717149       11.9494048164
  C        11.7217554919        9.2354229760       11.3356501935
  H         5.8947790933       -0.8063409030       39.0092355772
  H         6.3615796336       -2.3533967573       38.2820400856
  H         6.6678529326       -0.8774216025       37.4295494116
  H         1.7509703032       -1.9306719628       17.5806646281
  H         3.4017364725       -2.5033141726       18.0899443348
  H         3.1215710138       -1.7977390263       16.5476906473
  H        17.2508206518        1.5751077295       24.0270306004
  H        18.1279325036        2.6766654225       23.1451791207
  H        18.6724249979        1.0301064583       23.2016166240
  C        12.2171671164        7.2320876795       10.3785893804
  N        12.1217287459        8.5917070500       10.2339025897
  O        11.5384866146       10.4445342387       11.4240872703
  S        12.7789805943        6.4015872846        8.9966707154
  C        12.2881774247        9.3528526020        8.9947851878
  H        12.3645124714       10.4290069673        9.2576294926
  H        13.1309649993        8.9710593976        8.4392756499
  C        11.0261783873        9.3848316813        8.1923386335
  H        10.1603130416        9.2769359829        8.8438447245
  H        11.0390568017       10.1764874273        7.4639372083
  H        10.9771448932        8.5447399038        7.5392209675
  H         4.1037746652        1.2237650841       12.3545426428
  C         4.0539549870        2.2292929736       12.6767139501
  H         5.0818306341        2.5092997972       12.9063239235
  C         3.5756058114        3.0753476702       11.5161875334
  C         3.3387317816        2.3099309121       14.0580095468
  C         4.5771967819        3.0606391761       10.3880601847
  H         3.3758771834        4.0354943261       11.9415101765
  H         2.5888586407        2.7626602337       11.0763130669
  H         4.0116325080        2.6283173133       14.8017585511
  H         2.9420400349        1.3598293473       14.3227115215
  H         2.5083824513        3.0698063056       14.0795086787
  C         4.8389978086        1.7185004997        9.7553434671
  H         4.2827562329        3.6466612938        9.5068102241
  H         5.5588328951        3.3244888308       10.7291742974
  C         5.5188534856        1.8922805411        8.3701709003
  H         3.8735121398        1.2610462980        9.6406346328
  H         5.5293392876        1.1790166252       10.3984419847
  C         6.8545100879        2.6060478647        8.4139567585
  H         4.7774568419        2.4956714224        7.7626604892
  H         5.5534355755        0.9562547900        7.8092281227
  C         8.0488140412        1.8971944875        9.1515274370
  H         7.1281896801        2.6581543091        7.3849511002
  H         6.6240726374        3.6694660923        8.6565785870
  C         9.2093640338        2.9087714577        9.3215874012
  H         8.4509889896        0.9779553347        8.7104492836
  H         7.6769853161        1.7626068811       10.1273412177
  C         8.7987117969        4.2236997817        9.9489343690
  C         9.6932740271        3.5987917587        8.0698375366
  C        10.3998106745        2.2477832091       10.0025197342
  C         9.1277881317        5.3423317772        9.2090717559
  C         8.1710538420        4.5340909987       11.1259054706
  C         9.6598361881        4.9657237400        7.9859905910
  C        10.1163082829        2.9809739857        6.8924872788
  H        10.0665057329        1.9042521749       10.9507827951
  H        10.5869186389        1.5247159557        9.2089175255
  C        11.6145612042        3.1362125369       10.1574604766
  S         8.8016335164        6.7577425495        9.9896408203
  C         8.1775688976        5.9165198869       11.3321884943
  H         7.8648802733        3.7088800832       11.7761102989
  C         9.9625548858        5.5892343359        6.8230090227
  H        10.1698994534        1.9225821733        6.8933914844
  C        10.4380028542        3.6603296990        5.7703745900
  H        11.3022222537        4.1537881462       10.5167885993
  H        12.0273322603        3.3708944104        9.1909685549
  C        12.6250427912        2.5884564920       11.1072608647
  C         7.7018358456        6.5840161750       12.5638670876
  C        10.4751344336        5.0168079527        5.6595658186
  H         9.9184054650        6.6792633336        6.8996792430
  C        10.9434217556        3.2791981763        4.5714119624
  H        13.6326026733        2.8776186061       10.8190850996
  H        12.6644418238        1.5666581019       11.2346249637
  C        12.3599276201        3.0074175547       12.6137944886
  C         7.7733330635        7.9995835089       12.8558865509
  C         7.2210563917        5.8373803745       13.7603232276
  C        11.0746254481        5.7101907482        4.4236349650
  C        11.3392854476        4.3417567542        3.7990424838
  S        10.9902824870        1.7831528599        3.8099347351
  H        12.9427473434        3.9868961988       12.6770841016
  H        11.3228899376        3.2645986622       12.7585765702
  C        12.8736436318        2.0132294605       13.6122069757
  N         8.1554099394        8.9498889814       11.8831067016
  C         7.5359110654        8.5965982299       14.0446645403
  C         6.9351355950        6.4540933605       15.0157025500
  H         7.2872110195        4.7698298636       13.7536890395
  C        12.3146701561        6.4832287126        4.7189898430
  C        10.0847014544        6.4905900484        3.5667134186
  C        11.8232117945        3.9330920524        2.5286866390
  C        11.6542474915        2.6243747067        2.3472612868
  H        13.8823066046        1.8050426607       13.2336975105
  H        12.3280513689        1.1056755161       13.6028848587
  C        12.9523747071        2.6588864066       15.0092659699
  S         8.2648487879       10.4816331218       12.5226079709
  N         7.7166661008        9.9855713078       13.9450763022
  C         7.2440096790        7.9017972507       15.2629521005
  H         6.7620976340        5.7685331137       15.8796278548
  H        12.0805771867        7.3983458330        5.2979912527
  H        12.6735431629        6.8125870370        3.7682041944
  C        13.3706491463        5.6518265155        5.5141720165
  H         9.7128691800        7.3686281078        3.9563729385
  H        10.7684537539        6.7346271117        2.7600568830
  C         9.0181433732        5.6993050074        2.9032904507
  H        12.2072452256        4.6937349498        1.8345269459
  C        11.8362085914        1.8370046751        1.0795725036
  H        13.9582102670        3.0839093281       15.1447563464
  H        12.3054148795        3.5753892341       15.0620599850
  C        12.8228158266        1.7126325854       16.2669731913
  C         7.1680130235        8.6227540707       16.5303074245
  H        12.8944015043        5.1862143386        6.3630235852
  H        13.6597726810        4.7551009746        4.9569054799
  C        14.5066380570        6.4569674599        6.0634673141
  H         8.6638085820        4.9253114213        3.5054556093
  H         9.3508247425        5.1503186916        2.0560851072
  C         7.8073782936        6.5461941516        2.5009390761
  C        11.8839488870        0.4352243272        0.9549948212
  C        11.9841343804        2.5111899835       -0.2267418423
  H        13.5761806960        0.9621456836       16.1984024183
  H        11.9317831292        1.1246693534       16.1587989402
  C        12.7900620315        2.4501655129       17.6143093052
  H         7.1513576287        9.7188432205       16.4143215140
  C         6.7479431034        8.2760082445       17.7739795108
  H        14.1289704111        7.1305215092        6.8271129226
  H        14.7860341438        7.1102131276        5.2894705882
  C        15.5473865046        5.5240098049        6.6318992880
  H         7.5151295087        6.9602871305        3.4807230640
  H         8.1407222877        7.3094677890        1.8493445289
  C         6.6233906426        5.6607016472        2.0319091266
  N        11.8423177665       -0.4811162797        2.0356657693
  C        11.9893214305       -0.2475919517       -0.2416671630
  C        12.2291278686        1.8463560343       -1.4160267006
  H        11.7944768592        3.5473481297       -0.2525346562
  H        11.8649231590        2.9748651143       17.8715633569
  H        13.5281110928        3.2398399859       17.6746764129
  H        12.9669119755        1.7958150659       18.5613228282
  S         6.2289834428        6.7211759570       18.2375752656
  C         6.8078348990        9.3245358286       18.7693014201
  H        15.3718491823        5.1357529353        7.5751827666
  H        15.6897995558        4.7495733200        5.8444579364
  C        16.8657755487        6.2025776108        6.5730883225
  H         6.0941466859        5.2988151535        2.9208864359
  H         6.8654223257        4.7108969326        1.5573971756
  C         5.7824424557        6.3772874284        0.9340083694
  S        11.6629984013       -1.9896096987        1.4433630412
  N        11.9333262274       -1.6235056048       -0.1064587176
  C        12.3543330969        0.3491453652       -1.4491727658
  H        12.1903006260        2.4345563164       -2.2878516861
  C         6.1845109097        7.3256840373       19.8371561044
  N         6.4758864710        8.6975563832       19.9274300933
  O         7.0480911100       10.5019558951       18.5910995339
  H        17.0182832841        6.6147756892        5.6118512010
  H        16.8075335905        6.9990366205        7.3464282300
  C        18.0160101390        5.3457324595        7.1624307005
  H         6.4281335449        6.9021489723        0.1816250646
  H         5.1569736428        5.6749899038        0.4960917280
  C         4.8090380236        7.4462675553        1.4491313293
  C        12.5756643084       -0.4900262550       -2.6117243332
  S         5.7137428510        6.4717587039       21.3245134543
  C         6.5219253023        9.4303988941       21.1504815791
  H        17.5516654548        4.7563872209        7.9989389082
  H        18.2047442475        4.5436196580        6.4196917087
  C        19.2954482931        6.1495207665        7.3576886350
  H         5.0861479445        7.7137377421        2.4246436166
  H         3.8433897866        6.9219979819        1.5531304395
  C         4.6185246933        8.6628677269        0.5915258248
  H        12.3953484386       -1.4835536515       -2.5131771195
  C        13.0760067163       -0.1598698848       -3.7991026083
  H         5.8544652413        8.9208730211       21.8329874592
  H         6.2428047112       10.4329155385       21.0413811619
  C         7.9141064884        9.5128286641       21.7580162364
  H        19.7574334289        6.0976770721        8.3351410253
  H        19.0601992475        7.2003919421        7.1248670714
  C        20.3791753710        5.7874977654        6.3795225194
  H         5.5633003627        9.2300406157        0.4981716183
  H         4.5514155690        8.2462551887       -0.4846457283
  C         3.3920548468        9.5274855446        1.0217006444
  S        13.5875177068        1.3870853760       -4.2596352738
  C        13.1999929200       -1.1719907328       -4.8524083638
  H         8.0369703601        8.6011389913       22.3694877056
  H         7.9776072918       10.3775455392       22.3888872735
  H         8.6196386578        9.4921176522       20.9879940228
  H        20.6554000479        4.7237337848        6.3372084787
  H        20.1158898295        6.2073492152        5.3473427796
  H        21.2443464900        6.3679573815        6.5443270498
  H         3.8023246284       10.4182034359        1.3935540135
  H         2.5681422735        9.7650011393        0.2959620880
  H         2.8468299607        9.2254047415        1.9175661844
  C        14.0339750885        0.6740205679       -5.8155736824
  N        13.7972327207       -0.6985766970       -5.9149139327
  O        13.0049719690       -2.3719722294       -4.6123667343
  S        14.9925576995        1.4881759934       -7.1166874177
  C        14.1302474378       -1.4571985244       -7.1211897644
  H        13.9636531991       -2.5040007973       -7.0573543200
  H        15.2145947889       -1.2434293656       -7.3884835761
  C        13.0992358768       -1.1073223440       -8.2194464522
  H        12.8779055554       -1.8408748532       -9.0355091667
  H        13.3305530908       -0.1516997344       -8.7085109118
  H        12.1826518102       -1.0101529476       -7.6523731981
