352
 i =   113200, time =    56600.000, E =        98.6575953892
  H        10.0239429576        4.4586954816       31.4716162478
  C        10.3861114667        5.3923185391       31.7607269474
  H         9.6904252188        6.1718881372       31.4640662301
  C        11.6734648124        5.6910416776       31.0282966131
  C        10.5428145050        5.4526388681       33.2882312550
  C        11.5112945556        6.1991830106       29.5641894859
  H        12.1904186312        6.5210305690       31.4739032783
  H        12.3154714233        4.8676681755       31.0813836909
  H        10.0175260913        6.2419731715       33.8139750703
  H        10.1666803172        4.4878783577       33.7792526847
  H        11.5311858406        5.4557785681       33.6219113386
  C        10.3745002189        5.4681820307       28.8051160791
  H        12.4201449583        6.0745526041       28.9896308298
  H        11.2585836575        7.2659538175       29.6797828067
  C        10.4037674213        5.7301563345       27.3095977263
  H        10.4227251889        4.3640532207       29.0679518902
  H         9.4505665977        5.8420393415       29.2227989856
  C         9.3736501089        4.9720927473       26.4936194059
  H        11.4137773559        5.4013324658       26.9219889025
  H        10.3448836775        6.8203725827       27.1899645489
  C         8.1575594018        5.8850927042       26.3221764409
  H         9.7924918974        4.6128785601       25.5882002984
  H         9.1693128447        4.1114346142       27.0333897922
  C         6.9911187479        5.2128070225       25.4880252865
  H         7.7312052119        6.1744330687       27.3150954046
  H         8.5521121256        6.7242327222       25.8721274923
  C         6.6188269630        3.8948809947       26.1012257857
  C         7.4200160598        4.5698018855       24.1997234567
  C         5.7907070030        6.1469837735       25.2307139519
  C         6.9064763211        2.7989382039       25.2898180117
  C         6.1126394833        3.4239923336       27.3329469511
  C         7.3392481436        3.1869341152       24.0258621627
  C         7.9406873233        5.1661750312       22.9400785225
  H         6.1591990140        7.0288800018       24.7359057523
  H         5.5411788052        6.4838160408       26.2082560876
  C         4.5921803187        5.5330604216       24.5740725583
  S         6.5383513804        1.2933163109       26.0754817924
  C         6.0558934864        2.0618498564       27.4759420657
  H         5.9544307674        4.0971964821       28.1036556417
  C         7.6335714781        2.5478423895       22.8578373836
  H         7.9964162945        6.2294541737       23.1333484372
  C         8.3129164094        4.5436451627       21.8129248513
  H         4.9428298361        5.5781514399       23.5425387915
  H         4.4802422805        4.4396269403       24.8231304806
  C         3.3702455143        6.4274312611       24.7066353304
  C         5.6525151982        1.3280673025       28.7499619283
  C         8.2221565731        3.2232418152       21.7475033996
  H         7.5761070163        1.5132433450       22.8094167817
  C         8.7784331403        4.9335559460       20.5603316082
  H         2.6644808953        5.9933800771       23.9844053955
  H         3.6038637243        7.3658135911       24.1764321364
  C         2.6472287961        6.6758694462       26.0295622200
  C         5.5489110067       -0.0892819069       28.8836609972
  C         5.2048207594        2.1272994820       29.9000843978
  C         8.7963384434        2.5348929345       20.5002193079
  C         9.0644700517        3.8561577860       19.7961911383
  S         9.0455399301        6.4443581235       19.7442619974
  H         1.8763371158        7.4129888578       25.7961195600
  H         3.2653583317        7.0556582524       26.8799866832
  C         1.8920226959        5.4607643607       26.4695077436
  N         5.8429428274       -1.0722554380       28.0354369179
  C         5.2458200236       -0.6184697293       30.1591010680
  C         4.8163431447        1.6207426742       31.1147338947
  H         5.3438225613        3.2158487847       29.9150771733
  C         7.7625925524        1.6571371899       19.7029906405
  C        10.0542909595        1.6886469318       20.8356153599
  C         9.3724133966        4.2494937514       18.4894964027
  C         9.4331495072        5.6041144575       18.2767913172
  H         1.2137186681        5.0718938753       25.7096217667
  H         2.6185215569        4.6116242276       26.5009655241
  C         1.0460201117        5.6570800430       27.7025398246
  S         5.8682222911       -2.4809762413       28.7469146352
  N         5.3392908927       -1.9794960756       30.1713290295
  C         4.8427452421        0.1738587485       31.3042175756
  H         4.6221678746        2.2068328272       31.9439633255
  H         7.3539341672        1.0715770152       20.5047553892
  H         8.2651472720        1.0237993577       18.9756672542
  C         6.6820465408        2.5290455867       19.0406752748
  H        10.1975922374        1.0229964760       19.9631142595
  H         9.9091033949        1.0499063062       21.7407004368
  C        11.3336045397        2.5597677859       21.0493327356
  H         9.7127928423        3.5019003240       17.8197075538
  C         9.7647638066        6.2989918399       17.0024504457
  H         0.3057898874        4.9410161098       27.7085128491
  H         0.4834853306        6.5704602314       27.4020588115
  C         1.7780196773        5.9137184111       28.9945546131
  C         4.6583091623       -0.5177133510       32.5251679385
  H         7.0429286514        3.1659359481       18.1728731142
  H         6.3595801642        3.2310259839       19.7431964626
  C         5.5047697222        1.7237786933       18.4362881994
  H        11.0900604653        3.3666963431       21.7794562544
  H        11.6764388415        3.1224490339       20.2012717740
  C        12.4430624019        1.7028702540       21.5194315634
  C         9.8356933524        7.6937016422       16.8049066040
  C        10.0143290797        5.4694152519       15.7888914108
  H         1.9817743414        6.9683365245       29.0254142697
  H         1.2301933654        5.5094059642       29.8243750362
  C         3.1315978446        5.2176496550       29.1174653010
  H         4.8659875316       -1.5654362190       32.4690308158
  C         4.3964469245       -0.1414731311       33.7938267579
  H         4.9020572689        1.0980808602       19.1104636539
  H         5.9300296638        0.9974106852       17.7440861201
  C         4.5874343633        2.5337343637       17.6125937844
  H        12.2143269957        1.2895475779       22.4616239820
  H        12.6912715017        0.9492946532       20.7163959992
  C        13.6847867879        2.5798502259       21.7996085864
  N         9.5421908257        8.6508469102       17.7953786052
  C        10.2458483010        8.2327709526       15.6319497123
  C        10.4824372698        5.9934442566       14.6375251242
  H         9.9352129918        4.3893998739       15.8478853091
  H         3.3343452594        5.1363129779       30.1804262521
  H         3.1370355627        4.2332621703       28.5851301407
  H         3.9740314439        5.7597190096       28.6883464165
  S         3.8948427488        1.4109557450       34.3247042441
  C         4.4186760690       -1.1752555737       34.8136378347
  H         4.6272290997        3.5867234481       17.8971007021
  H         4.9065506444        2.4384811428       16.5396827059
  C         3.0789786941        2.0235206060       17.7637224505
  H        13.3756585199        3.0767445748       22.6672720509
  H        14.0410651895        3.2258088778       21.0208822587
  C        14.9573697929        1.8575065308       22.3007245970
  S         9.6224263161       10.1164850196       17.1804811445
  N        10.1998337453        9.6103398405       15.7164919625
  C        10.7047124679        7.4480715030       14.5421117187
  H        10.6317160174        5.2693495722       13.8163176280
  C         3.8353198873        0.6935143472       35.9327071103
  N         4.0247984613       -0.6825087049       36.0282487565
  O         4.7680735581       -2.3364113510       34.6171977158
  H         2.3694235090        2.6951417134       17.3678591533
  H         2.7508868721        1.8960586315       18.7951613380
  C         2.9329502771        0.6064059704       17.0828022146
  H        14.7776343392        1.6330507884       23.3329189139
  H        15.0638384710        0.9482144496       21.7529159898
  C        16.1420969615        2.8251489656       22.0792942249
  C        11.0736388685        8.0974861362       13.3244299779
  S         3.2745863119        1.4136170337       37.4708480734
  C         4.0573499885       -1.4111046547       37.2692201214
  H         2.2429243400        0.6041665701       16.1858513781
  H         3.9128261603        0.2884327816       16.7580035435
  C         2.3009518154       -0.3152436079       18.0680181924
  H        15.8717980253        3.8128950833       22.4615645550
  H        16.2323473142        3.0103632375       21.0147517598
  C        17.3857791931        2.1441766663       22.5584859994
  H        10.9205091190        9.1206133233       13.3568038002
  C        11.6944837108        7.6947254280       12.1965132075
  H         3.1826097819       -1.1995813698       37.9208262996
  H         4.0431381857       -2.4263129454       36.9376223897
  C         5.3962828458       -1.2257316280       37.9966126560
  H         1.2824151687        0.1665024675       18.3434262774
  H         2.8134495182       -0.4856411983       19.0438324213
  C         2.1913867288       -1.7603267059       17.5301052752
  H        17.6451684439        1.1738319499       22.1488872492
  H        18.2260054675        2.7211738016       22.2535863837
  C        17.4418716588        2.0027160777       24.0826889258
  S        12.3064820094        6.1332168865       11.8536750124
  C        11.8106473100        8.6438694217       11.0802229274
  H         5.4613249597       -1.8856026070       38.8831244633
  H         6.3231512433       -1.3760034815       37.4595481743
  H         5.4061442881       -0.2535445684       38.3709273432
  H         2.0604681914       -1.9504530259       16.4947719959
  H         1.2991994506       -2.2512455834       17.9870087371
  H         3.1246717508       -2.3156366059       17.7577681422
  H        16.8878312751        1.1266174796       24.3590694712
  H        17.0655210107        2.8388254324       24.6088872699
  H        18.5103882749        1.9013726554       24.3840774923
  C        12.5039212699        6.6546257021       10.2014042886
  N        12.2953546591        7.9471865180       10.0198622351
  O        11.4627272798        9.8083724158       11.0700954378
  S        13.1998340659        5.6685281036        8.8438973179
  C        12.6352128420        8.6153088689        8.7927404091
  H        13.1954234088        9.5787061885        9.0064238126
  H        13.3689929113        8.1779314403        8.1332542129
  C        11.4415045780        8.8667797572        7.8680099547
  H        10.4931938104        8.5238802546        8.1600258361
  H        11.2786478677        9.9149444970        7.7501060350
  H        11.7631994362        8.4209674864        6.8917958282
  H         2.3190402672        3.1284570974       12.1613432543
  C         2.9573738528        2.3101294023       12.4153199976
  H         2.3879233328        1.3964282643       12.0925882295
  C         4.3451400403        2.4683220931       11.7314410662
  C         3.1247887821        2.3433948880       13.9375520215
  C         4.3230578296        2.8653388025       10.2379412091
  H         4.8965040219        1.5449712845       11.9615170080
  H         4.9183856987        3.1946044264       12.2188270096
  H         2.2085592680        2.7070329354       14.4164506801
  H         3.9776347878        2.8628926325       14.3468717525
  H         3.2907908385        1.3234272214       14.2783188855
  C         4.7153510930        1.8367049438        9.1881881275
  H         3.3318623986        3.3090747251       10.0713231798
  H         5.0227098469        3.7015385282       10.1960580767
  C         5.5768655313        2.1438755934        7.9792945584
  H         3.8851781491        1.2924521869        8.8558368807
  H         5.2079141997        1.0352288440        9.7408440004
  C         6.8848560311        2.8791545771        8.3108483827
  H         4.9495192434        2.7843464627        7.3313853607
  H         5.7963923291        1.4032156651        7.2926874837
  C         8.0314828293        1.9737229306        8.8103608918
  H         7.1252382561        3.3453780733        7.3783638067
  H         6.6871762620        3.6739832245        9.0562586455
  C         9.3601824265        2.7389327433        9.1991604963
  H         8.2073373753        1.1880527672        8.0799426511
  H         7.6306319220        1.4238815423        9.6841636786
  C         9.0367632705        4.1087246919        9.8384859255
  C         9.8599500790        3.4472884441        7.8835589290
  C        10.2409864197        2.0320888860       10.1492746370
  C         9.2115446810        5.2074306591        9.0154143706
  C         8.5130099665        4.4868568610       11.1170936125
  C         9.7809752302        4.7787564744        7.8186130823
  C        10.2705809783        2.8067619620        6.7149522837
  H         9.6930710988        1.4771785390       10.9352758395
  H        10.5745793171        1.2414950203        9.5411767976
  C        11.4308991435        2.7001263565       10.7378120859
  S         8.8265750734        6.7201293709        9.7589602722
  C         8.3797008157        5.8461063443       11.2529843680
  H         8.4616121627        3.6936802176       11.8729390118
  C        10.1848186327        5.3671819113        6.6392588359
  H        10.3369815421        1.7394789052        6.7691052007
  C        10.6163618452        3.3950171057        5.5589805161
  H        11.1613729507        3.5099096365       11.4413466915
  H        11.9175332415        3.2159337036        9.9343198795
  C        12.4065885776        1.8170046738       11.4680525821
  C         7.8984198275        6.5112334122       12.5464122081
  C        10.6320668136        4.7483246167        5.5120531746
  H        10.1409279961        6.4654896576        6.6139312131
  C        10.9489335633        2.9601267285        4.3051837306
  H        13.3650028769        2.3605970891       11.6513977030
  H        12.7335784754        0.9742604657       10.9255963584
  C        11.9414193785        1.4465912382       12.9382915154
  C         7.8423845639        7.9444126234       12.7939682419
  C         7.2731679841        5.6264057549       13.6184041473
  C        10.9618122472        5.4107629534        4.1875885945
  C        11.2056813578        4.0803263566        3.5141381615
  S        11.0343348511        1.4304902036        3.5517636994
  H        10.8598374059        1.5850707623       13.0481095741
  H        12.0929259470        0.3629969607       13.1106803468
  C        12.8995951679        2.0687549289       13.9752098370
  N         8.3094000141        8.9128593465       11.8883783255
  C         7.3494900737        8.4297384321       13.9509651967
  C         6.8715387000        6.2081870461       14.7720866028
  H         7.0605415017        4.6388261572       13.4551227702
  C        12.2614616818        6.2138056178        4.3811323225
  C         9.7976179715        6.2194951103        3.5445147798
  C        11.3121978398        3.5818006669        2.1811525680
  C        11.4489645956        2.2115237191        2.1449429840
  H        13.3718372446        2.9954488991       13.6549206368
  H        13.7822505707        1.4329337777       14.1188691599
  C        12.2171437846        2.1553229858       15.3479698422
  S         8.2567844516       10.3198180727       12.5693343107
  N         7.4234833843        9.8870846643       13.9299564024
  C         6.9594606919        7.6460745959       15.0617465968
  H         6.4532848877        5.5575695792       15.5630057067
  H        12.0785970139        6.9296739851        5.1930903919
  H        12.5107186840        6.7754202213        3.4658397690
  C        13.4743335407        5.4304892571        4.7736161653
  H         9.3124662160        6.8162419628        4.3301620481
  H        10.1853991867        6.9661429716        2.8174664740
  C         8.6507122642        5.4296405270        2.9615630997
  H        11.5775873352        4.2827733751        1.4076001532
  C        11.6718466820        1.4938907510        0.8483774741
  H        11.7043211559        3.0662688075       15.5530897898
  H        11.4761479898        1.3373932826       15.4330303089
  C        13.3090859132        1.9404042637       16.4413175704
  C         6.5730695247        8.2952007469       16.2144634673
  H        13.1523929196        4.7182377806        5.5116951269
  H        13.8546712439        4.7953222895        3.9813423452
  C        14.6087326580        6.2279628935        5.4649584127
  H         8.2436781495        4.7475099278        3.7260497836
  H         9.0924496768        4.9818525244        2.0887552801
  C         7.4451391055        6.3098481169        2.6422649971
  C        11.9016312344        0.1249803533        0.8054884673
  C        11.8843497399        2.2564852414       -0.4307006656
  H        14.1758118889        2.5424173102       16.1569829797
  H        13.8126508600        0.9971587719       16.4930378950
  C        12.8589687153        2.2788970607       17.8291171328
  H         6.5382937295        9.3747270205       16.1312576332
  C         6.2671914104        7.8072559210       17.4487146146
  H        14.2161687739        6.9952976141        6.1116515517
  H        15.1223989343        6.7680479580        4.7414981461
  C        15.6771225998        5.3129595022        6.1207010298
  H         6.9122084742        6.5680230321        3.5610428795
  H         7.7390085560        7.3104190320        2.2436616842
  C         6.4382027549        5.5627151502        1.7391013371
  N        11.7063469263       -0.7652152534        1.8194454707
  C        12.1459149903       -0.5816457710       -0.3579545168
  C        12.2082135487        1.5586698786       -1.6128891383
  H        11.5862044197        3.2975169887       -0.5972976688
  H        12.0364672887        2.9962133259       17.8778175457
  H        13.7313670231        2.6432861272       18.3729807060
  H        12.4622033395        1.3731967758       18.2460666996
  S         5.9778198931        6.2032710965       18.0012408119
  C         6.2492373791        8.9197308541       18.4800207474
  H        15.4882524999        5.1268541554        7.2258704939
  H        15.6223471725        4.2851468908        5.7084529867
  C        17.1353696300        5.7183739178        5.9452809442
  H         6.2799150189        4.5337774394        2.0432427991
  H         6.6801222972        5.4326790864        0.6847647552
  C         4.9500564530        6.1362172589        1.6795201953
  S        11.8531569163       -2.3059476588        1.3969801472
  N        12.2617450866       -1.9885127428       -0.1369528039
  C        12.3416213790        0.0437794430       -1.6662775315
  H        12.2723853367        2.1327604219       -2.5817943060
  C         5.8552807835        6.9767715765       19.6390837544
  N         5.8781811285        8.3479384326       19.6406563672
  O         6.4665097591       10.0861223643       18.2732188394
  H        17.3374716223        5.3975847758        4.9191291575
  H        17.0964248654        6.7778996718        6.1538898539
  C        18.0899381340        5.0173212251        6.9576366589
  H         4.3294937284        5.4415326755        1.1447490051
  H         4.5359227944        6.0031391411        2.7018522951
  C         4.9857354835        7.5321449432        1.0242239466
  C        12.5969228282       -0.7976858080       -2.8001916862
  S         5.3706662495        6.2112613883       21.1052337444
  C         5.7777140158        9.1144878539       20.8144824452
  H        17.5794324087        4.6126263645        7.8230634617
  H        18.5036820162        4.0923054586        6.5523384816
  C        19.1702984196        5.9364862649        7.4801548795
  H         4.2375883197        7.5456820187        0.2019165576
  H         5.9401429962        7.7171815412        0.5143706940
  C         4.7647303911        8.5951246137        2.1210798488
  H        12.3111959838       -1.8136896158       -2.6557867927
  C        13.1433500435       -0.5435021204       -3.9850454415
  H         5.0991365965        8.7698775334       21.5592835993
  H         5.2669083402       10.0169017290       20.6314378510
  C         7.1572206212        9.3249281935       21.4482666557
  H        19.7011511637        5.5805904776        8.3274448860
  H        18.7703041169        6.9087875096        7.7770608877
  C        20.2334827364        6.2404762004        6.4108108342
  H         3.9804023085        8.1946305541        2.7370898894
  H         5.6136861163        8.7566839506        2.7888052883
  C         4.4394553685        9.9720021705        1.6063576391
  S        13.5799513850        0.9897882538       -4.6319099430
  C        13.2586982563       -1.6721772305       -4.9596567326
  H         7.1201874310        8.8536938978       22.4425343079
  H         7.3397323582       10.4003480716       21.4131627285
  H         7.9573663411        8.7984087121       20.9443685975
  H        19.7496999294        6.9315545689        5.6214395216
  H        21.0845951220        6.7343196580        6.7841805007
  H        20.6241863736        5.3430656215        5.9170582883
  H         3.7464894770       10.3646775147        2.2851605240
  H         5.3641079331       10.5210068617        1.5202918502
  H         3.9713870324        9.9604360101        0.5987579344
  C        13.8159803312        0.2252211719       -6.1922875058
  N        13.7860199841       -1.1504619324       -6.0920547992
  O        13.0619836647       -2.8661324019       -4.7140556125
  S        14.4202228282        0.9865406365       -7.6296798481
  C        14.1020783196       -2.0471985625       -7.2085477782
  H        14.2129422917       -3.1306250403       -6.9358184129
  H        15.1231701764       -1.6112050982       -7.5240218433
  C        12.9645286995       -1.9322648094       -8.3835222833
  H        13.2119612757       -1.0740172418       -9.1078233093
  H        12.0404336495       -1.7395219904       -7.8373214153
  H        12.9158933705       -2.7947551675       -9.0304678322
