352
 i =    98900, time =    49450.000, E =        98.4645342880
  H        12.4961051369        5.8282873899       32.1991119291
  C        11.5764922838        5.2859103494       32.4839304397
  H        11.5712815239        4.2783006619       32.2311921262
  C        10.4331367936        5.9882885254       31.8077398874
  C        11.3772268797        5.1803225725       33.9695357440
  C        10.6193041412        6.5163369944       30.4385356742
  H         9.5473852284        5.2989511202       31.8429503559
  H        10.2112629131        6.8408878787       32.4442996379
  H        12.2889559021        5.0833158327       34.5656947326
  H        10.9023642220        6.0148461580       34.3437304488
  H        10.7623905963        4.3217711143       34.2029509501
  C        10.3528467347        5.4397633928       29.3513252925
  H        11.6367244741        6.8099703340       30.2999417619
  H         9.9210750458        7.2856722116       30.1730285468
  C        10.8361161161        5.7442514310       27.9243737770
  H        10.6275689986        4.4549863474       29.7055921832
  H         9.2864434287        5.3881847942       29.2261677190
  C        10.0026999717        5.1712875083       26.8296714316
  H        11.7783215674        5.1972197783       27.8306603048
  H        10.8902931299        6.8374544171       27.7871502756
  C         8.7279898362        5.9783519696       26.5304589637
  H        10.5564624640        4.8652866822       25.9056123681
  H         9.8835339930        4.0817239617       27.0907215124
  C         7.6519498309        5.2423286461       25.7149387543
  H         8.3048419089        6.2723503082       27.4647137141
  H         8.9770789459        6.8533550870       26.0321917653
  C         7.1970990950        3.9753217384       26.4333462287
  C         8.0994085677        4.4413014039       24.4774349497
  C         6.4457310339        6.1604670510       25.5703737148
  C         7.4182330082        2.8688745423       25.6625109037
  C         6.6620433427        3.6665326501       27.6618958340
  C         7.9999742089        3.0986271175       24.4355048222
  C         8.5010760554        4.9721898422       23.3054089470
  H         6.7605058195        6.9992072702       24.9519572902
  H         6.3757236843        6.5026862747       26.5888072763
  C         5.1295392154        5.5215298838       25.0135533688
  S         6.8793351934        1.3632314749       26.4019600151
  C         6.5223071244        2.3013710155       27.8076688004
  H         6.5544447056        4.4882173858       28.4003919785
  C         8.3640076994        2.4151557214       23.2899034613
  H         8.4792744395        6.0124605063       23.3000844580
  C         8.7630549493        4.3210961731       22.1513530662
  H         5.3373095960        5.4478172013       23.9705705007
  H         5.0200467097        4.5569976929       25.4212471109
  C         3.7930973026        6.3107627524       25.1390874136
  C         6.0154203693        1.5429898001       29.0577731781
  C         8.7095005706        2.9957774682       22.0598824778
  H         8.3029473486        1.2988095932       23.4164451848
  C         9.1299921169        4.7237827874       20.8879472780
  H         3.0394849038        5.8719743074       24.5475620678
  H         3.8396062915        7.2825062961       24.6714391685
  C         3.2980217271        6.5190099717       26.5696893159
  C         6.0320089333        0.1519682843       29.3094018357
  C         5.7511050282        2.3999608065       30.2388461369
  C         9.1381352833        2.2582320029       20.7850467739
  C         9.2843680509        3.6157136861       20.0537047490
  S         9.3723923123        6.2215790659       20.1470725716
  H         2.3633509240        7.1365670284       26.5701917005
  H         4.1051752043        6.8534205346       27.2565630250
  C         2.7937793384        5.1717342844       27.0728358898
  N         6.3506073670       -0.8368817319       28.3731761801
  C         5.7988763558       -0.4218662128       30.5199295876
  C         5.3768434300        1.8634687956       31.4197331448
  H         5.6468616267        3.4445095578       30.1014624314
  C         8.1010269324        1.3673065391       20.0926949939
  C        10.4401139750        1.5148771218       20.9930538181
  C         9.6031308781        4.0195617015       18.8052144147
  C         9.6251284814        5.3867544611       18.6036740516
  H         2.5682988516        4.3815457003       26.3425538800
  H         3.6114387198        4.6300622189       27.4793990240
  C         1.7075416658        5.2588603773       28.1415109632
  S         6.2113077241       -2.2801824505       29.0797276819
  N         5.8588537571       -1.7943620633       30.5867717798
  C         5.3639050636        0.3878163974       31.6095193807
  H         5.0065392260        2.5532998227       32.2270832123
  H         7.5728430928        0.6678242436       20.7965204166
  H         8.4945612960        0.8230178362       19.2056206498
  C         6.8510346560        2.1859569600       19.5690513478
  H        10.7661051844        0.8880988880       20.1108181151
  H        10.2532518661        0.7932157274       21.7731600287
  C        11.5867950084        2.3440290578       21.5976275338
  H         9.7621332750        3.2365214637       18.0924157459
  C         9.8881330229        6.0500533043       17.2670602393
  H         1.2340577142        4.2566930252       28.1986640556
  H         0.9288028248        6.0161091673       27.8839019969
  C         2.4907957941        5.5593218631       29.4245008015
  C         4.9730229963       -0.2103990831       32.8241161693
  H         7.0137346723        2.9345525175       18.8340069638
  H         6.5390855946        2.8198744032       20.3830517248
  C         5.6930945806        1.2919678184       19.3041621435
  H        11.4082936998        2.6690901721       22.6608278486
  H        11.7624067182        3.2829757740       21.0658185186
  C        12.9870226465        1.6240963301       21.5028442973
  C        10.0140608260        7.4838084015       17.0464811624
  C        10.3251349679        5.2260318746       16.1574154141
  H         3.1355670119        4.6804107890       29.6753161827
  H         3.1410572968        6.4433993015       29.2864588806
  C         1.5298256601        5.9957596861       30.4696051716
  H         5.0438715841       -1.3493679689       32.7892532817
  C         4.8391131898        0.1637511052       34.1620110692
  H         5.2912960585        1.2436810777       20.2981601514
  H         6.0006660999        0.2880313008       19.1181729629
  C         4.7671108476        1.9016361359       18.3046534639
  H        12.9468333486        0.9405487342       22.3407096414
  H        13.1178432248        1.0440381311       20.5884579215
  C        14.1967189946        2.5355301289       21.7423288576
  N         9.7802547642        8.4358564823       18.0105094212
  C        10.4576151619        8.0421371245       15.8284019682
  C        10.7059714458        5.7522575115       14.9689430826
  H        10.3951318638        4.1283248805       16.2888095544
  H         1.1903487846        7.0527193234       30.4182979296
  H         0.5245439750        5.5260880409       30.4688127606
  H         2.0648882082        5.8586568082       31.4053660475
  S         4.5041212862        1.7338101892       34.7526641481
  C         4.8128125814       -0.9335080946       35.1837400168
  H         4.2246585437        2.7965346526       18.7565935727
  H         5.3539281258        2.2924848204       17.4775854828
  C         3.8140370125        1.0182954418       17.6128464117
  H        14.0311112806        3.0771402689       22.6929369337
  H        14.2627495353        3.3490123842       21.0999724746
  C        15.5057983684        1.7197466474       21.7658924351
  S        10.1586541863        9.8940551767       17.3717096766
  N        10.6918395362        9.4333994327       15.9236005840
  C        10.7611240120        7.2233156949       14.7595396947
  H        10.9469123551        5.1358721088       14.1451113227
  C         4.2997385361        0.9713922036       36.3060181308
  N         4.5025411014       -0.3612925530       36.3747755819
  O         5.1717638908       -2.0942863728       34.9949277542
  H         4.3509445182        0.0697689878       17.5824609848
  H         3.5900517989        1.3344907804       16.5586819481
  C         2.4576669078        0.8478920775       18.3341740615
  H        15.4657832423        0.8767528973       22.4730390274
  H        15.5846341938        1.3875396402       20.7644919611
  C        16.5802356327        2.6860216001       22.1311789699
  C        11.0345427038        7.9209194610       13.5599653679
  S         3.7618571672        1.8691241045       37.7122634111
  C         4.4514762104       -1.1531096162       37.5976791580
  H         2.4747263401        0.5744947378       19.4442316639
  H         2.0860154420        1.8590746371       18.3583115357
  C         1.4239892769       -0.1517873353       17.6192614186
  H        16.2106941518        3.6177925316       22.4691872997
  H        17.1845898566        2.9246832984       21.2793975515
  C        17.6789173764        2.0393348167       23.1242099875
  H        10.7405363239        8.9572983084       13.6641039516
  C        11.6155857284        7.6463973570       12.3668844352
  H         3.5815781276       -0.8017014517       38.2218839512
  H         4.1378131174       -2.1880254028       37.3300227323
  C         5.7149471646       -1.1028553404       38.4087850645
  H         1.8689557711       -0.2372992871       16.6066859157
  H         0.3604108662        0.2556901865       17.4428964068
  C         1.4890312309       -1.5819394755       18.1681796627
  H        18.0534598338        1.0614773511       22.7116927645
  H        18.5580653401        2.6745513784       23.0394403868
  C        17.1740403526        2.0423213131       24.5421049935
  S        12.1672597207        6.0723851578       11.8449497943
  C        11.7033940739        8.7036626686       11.2937580331
  H         6.4038761289       -0.3985488559       37.8828868446
  H         5.6019609591       -0.7766444968       39.4351868970
  H         6.2635351616       -2.0652247122       38.4395841726
  H         2.4940201889       -2.0008201222       18.3312735036
  H         0.8347247212       -2.2326317295       17.5189385184
  H         0.9866875641       -1.5842426297       19.1461198669
  H        18.0991358239        2.2241020220       25.2245891881
  H        16.8265468694        1.0473698793       24.7447267740
  H        16.3888517977        2.7331548359       24.7832219937
  C        12.6869358999        6.8637758921       10.3282393261
  N        12.3638089799        8.1455695147       10.2199656652
  O        11.3391209442        9.8883271458       11.3508406480
  S        13.0250528342        5.9074831818        8.9155601176
  C        12.6509417621        8.8323551152        8.9476786416
  H        12.8673326503        9.8619728176        9.0945880246
  H        13.6587114961        8.6553904011        8.5230139252
  C        11.5080168753        8.5986089344        7.9104115407
  H        10.5836371728        8.4069423996        8.4808650193
  H        11.2572090459        9.4743755888        7.3284543166
  H        11.7140010569        7.7091168212        7.3270653376
  H         2.6359637184        3.5159763151       11.8848794608
  C         2.9740919132        2.5904267111       12.3188736841
  H         2.5498734780        1.8116488086       11.7236774233
  C         4.3776215476        2.5221318558       11.9897191782
  C         2.8023805066        2.3642297636       13.7933450508
  C         4.6703754122        2.8474869529       10.5106691484
  H         4.7582352903        1.5154576043       12.2971604468
  H         4.9076426015        3.2371427918       12.6628410817
  H         3.1493038025        3.1561073718       14.4288887316
  H         3.2493812916        1.4244956072       14.1513147829
  H         1.7687416018        2.2033674346       13.9860313097
  C         4.9494156643        1.6668772345        9.6288359270
  H         3.9145361019        3.5011030054       10.0386511348
  H         5.5546789065        3.5185007678       10.6568956145
  C         5.4296788292        2.0103759458        8.1929006695
  H         3.9906286336        1.1820395761        9.5817691082
  H         5.4784541635        0.9655296163       10.2485731522
  C         6.7965570476        2.6723509519        8.1753618995
  H         4.8079349256        2.7376063633        7.6867136168
  H         5.4070487593        1.1101381818        7.5521409435
  C         7.9765853661        1.9037273395        8.9398068852
  H         7.1432498117        2.8374366763        7.1655955185
  H         6.8016839260        3.7462985107        8.5339454082
  C         9.3627009881        2.7375706687        9.1264824086
  H         8.1609221749        0.9275277812        8.4899094835
  H         7.7364763167        1.6682637987        9.9587115719
  C         9.0399666893        4.0167631472        9.8292473092
  C         9.7304004663        3.4402879143        7.8352954339
  C        10.5188857169        1.9989483613        9.8045211131
  C         9.0445707105        5.1123781761        8.9945444442
  C         8.5353134507        4.3740705912       11.0990363389
  C         9.5923463455        4.7727093206        7.7487252844
  C        10.1232676924        2.8212841402        6.6421787546
  H        10.1156458983        1.5833559521       10.7329064734
  H        10.8802179683        1.1986884592        9.1929723041
  C        11.7466854860        2.8534026652       10.1427456467
  S         8.4885331323        6.5629598489        9.6587484518
  C         8.2060973234        5.6583627182       11.1478131127
  H         8.4185189073        3.6287163885       11.8803223724
  C         9.8818867032        5.4455919963        6.6140745830
  H        10.0854386552        1.7978046463        6.6159058337
  C        10.4366083107        3.4671893568        5.4736073087
  H        11.5383092782        3.7354263170       10.6408366042
  H        12.2108362066        3.0447989761        9.1986661491
  C        12.6942145466        2.0738673091       11.0956285152
  C         7.7721676853        6.3815490916       12.3766824821
  C        10.3277256117        4.8391553082        5.4251531498
  H         9.6472896148        6.5100982312        6.5334015591
  C        10.9055147378        3.0349339126        4.2958701606
  H        13.5766524532        2.8204884491       11.2809999854
  H        13.1943489226        1.3371299444       10.4647895776
  C        12.0923884260        1.6574277334       12.4346763643
  C         7.7207529776        7.7941733556       12.5874846163
  C         7.3745840294        5.5776440676       13.5698230952
  C        10.8019799219        5.4895463323        4.1639678910
  C        11.1026863382        4.1587213541        3.4864491408
  S        11.1931997513        1.5660095044        3.5608367462
  H        11.2350627539        2.3301519222       12.4533749577
  H        11.6803300023        0.6440296725       12.4554356645
  C        13.0138144849        1.8995176591       13.5860870106
  N         8.0468097252        8.7915952650       11.6886190962
  C         7.5182468727        8.4071520071       13.8509724679
  C         7.2009645609        6.0901926741       14.8405519231
  H         7.1246205103        4.6004629076       13.4009648041
  C        12.0098601376        6.4377014833        4.2913102608
  C         9.5574146132        6.1703192766        3.4099727162
  C        11.5581197262        3.7459742946        2.2280886807
  C        11.4818275379        2.3637997155        2.0682654113
  H        13.5613656147        2.8116033814       13.2722167585
  H        13.5899679003        1.0148734872       13.7395316551
  C        12.2698536287        2.2012436364       14.8668665809
  S         7.9979067939       10.3228756158       12.3650559524
  N         7.6523296854        9.8002983219       13.9020543404
  C         7.2543840356        7.5940020146       15.0014832803
  H         6.8908967646        5.4308078417       15.6879071686
  H        11.7587235356        7.3057932687        4.9209742436
  H        12.3761505881        6.7103988396        3.2915291161
  C        13.1056420276        5.6727306207        4.9872851011
  H         8.9642407114        6.6617245542        4.2249956629
  H         9.9199935581        7.0266811187        2.8199524828
  C         8.5457565284        5.3430654643        2.7753350090
  H        11.7336351817        4.5248788209        1.4976672594
  C        11.8287016358        1.5672671040        0.8526386032
  H        11.9662069726        3.2372803942       14.9797326443
  H        11.3972300389        1.6470090381       14.9478010914
  C        12.9919067233        1.6551337288       16.0661846725
  C         7.0405267022        8.3012127887       16.2174062257
  H        12.7095937962        5.4182563257        5.9606197477
  H        13.2173775794        4.6769693938        4.5129620469
  C        14.5092584384        6.3043502954        4.9811987509
  H         8.3445397295        4.4044815945        3.3675818852
  H         8.9676231187        5.0678640857        1.8183340133
  C         7.2616404653        6.1321442856        2.4513650828
  C        11.9938533761        0.1379777664        0.7819891450
  C        12.0486887496        2.3370870079       -0.3839102215
  H        14.0802904078        1.9453031385       16.0250351734
  H        12.9445825378        0.5782892032       16.0876983030
  C        12.5169583876        2.0820242550       17.3897476228
  H         7.1367916823        9.3961152946       16.2507616126
  C         6.6701939695        7.8818187650       17.4569453821
  H        14.5548898805        7.2192979555        5.6039124075
  H        14.7879704991        6.7166556904        4.0034349424
  C        15.6403787338        5.3046770056        5.6131173712
  H         6.5800106222        6.2641464663        3.3111285283
  H         7.4595521352        7.1665321145        2.1406070441
  C         6.4400501295        5.3944328539        1.4022754667
  N        11.7710547691       -0.7444429102        1.8223526300
  C        12.3554543400       -0.5105162474       -0.3850373407
  C        12.3597427507        1.6473103270       -1.5542915962
  H        11.8572043948        3.4260983912       -0.3713949520
  H        12.5599966657        3.1927447577       17.4799802995
  H        13.2471894092        1.6998072474       18.1122574846
  H        11.5690553231        1.6822127121       17.8214298735
  S         6.3499344021        6.3093182633       18.1473994174
  C         6.6510205348        8.9154726276       18.5539999557
  H        15.2641707572        4.7457725104        6.4301181343
  H        15.9647395220        4.5324472533        4.9195927372
  C        16.9288085954        5.9841232529        5.9830167993
  H         6.1168818754        4.3908270084        1.7637797060
  H         7.1522092084        5.1744738673        0.5494268052
  C         5.1666448687        6.1427220656        1.0829887051
  S        11.8361901347       -2.2646129262        1.1985948842
  N        12.4445867231       -1.8854751220       -0.2910340516
  C        12.5004865862        0.1695233383       -1.6074358037
  H        12.3980032037        2.2522311089       -2.4744659202
  C         6.2077836173        7.0308170176       19.7172736382
  N         6.3272523541        8.4039968436       19.7024671833
  O         6.7952195129       10.1323729598       18.4482251799
  H        17.5099560942        6.2076891070        5.1065755837
  H        16.8121203192        6.8938873861        6.5446342967
  C        17.7046736206        5.0255968967        6.8874238889
  H         4.5926370277        5.6600259187        0.3427698455
  H         4.5489990401        6.1501148126        2.0286612751
  C         5.2847870444        7.5212933173        0.4660930037
  C        12.8966694060       -0.5806865423       -2.7818228237
  S         5.5986702971        6.1554040170       21.1604350970
  C         6.3450169542        9.2386776784       20.8733538451
  H        17.0026411192        4.7479971860        7.6571935723
  H        17.9824513525        4.1368934906        6.3707305784
  C        18.9472404949        5.7264010401        7.4825430800
  H         5.0388516899        7.3833810890       -0.6295784012
  H         6.2936991367        7.8952060912        0.5988153807
  C         4.2784590755        8.4788604639        1.1741406573
  H        12.9244030425       -1.6538147420       -2.6241751265
  C        13.3217131976       -0.2155089051       -4.0232058853
  H         5.8309038886        8.8871699318       21.7586905374
  H         5.8100502691       10.1813246994       20.7124421560
  C         7.7969838598        9.4918666885       21.2642274528
  H        19.5244336219        5.0833806577        8.1578310253
  H        18.8223936905        6.6419081533        8.0253503406
  C        19.9898894180        6.1061709637        6.4543720458
  H         4.3294237161        9.3882209574        0.6422440200
  H         3.3031933998        8.1309014585        1.0112798228
  C         4.5242084510        8.8354629970        2.6214191593
  S        13.7023785620        1.3484335859       -4.5945705520
  C        13.4703609877       -1.3246696858       -5.0512421196
  H         8.0238546748        8.8611598865       22.0871686114
  H         7.9573801526       10.4813468399       21.7270059407
  H         8.6051847807        9.2282244581       20.5747822472
  H        19.4992531406        6.6955876738        5.6291148566
  H        20.7254435720        6.7552901798        6.8991208926
  H        20.5265936685        5.2760407536        6.0841686666
  H         4.4421536734        9.9369627515        2.8756777863
  H         3.8205643401        8.3136246365        3.2248811387
  H         5.5650003577        8.6003458627        2.8529966752
  C        14.2514438091        0.5769627052       -6.0907369020
  N        14.1087742708       -0.7707026304       -6.0590820259
  O        13.1082813890       -2.4728390621       -4.9167376593
  S        14.9134217835        1.3771188032       -7.5819345551
  C        14.3311658115       -1.5271248443       -7.2620792978
  H        14.7129497587       -2.4702913345       -6.9878262062
  H        15.1531981989       -1.0567402881       -7.8594463597
  C        13.0101711526       -1.7822623922       -8.0735535893
  H        12.1150651220       -1.9890168321       -7.4731665222
  H        13.0471686376       -2.6712916122       -8.7481315725
  H        12.7309575361       -0.9144567006       -8.6430055715
