352
 i =    40000, time =    20000.000, E =        99.8200364978
  H        10.3178510110        4.7635113538       31.8309023659
  C        10.5640286060        5.7015576723       32.2594063527
  H         9.5819044801        6.1699954074       32.2431356453
  C        11.5707066241        6.5474635554       31.3154273623
  C        11.0513014308        5.3433402292       33.6636886249
  C        11.5897330041        5.8423803764       29.9320340676
  H        11.2283904917        7.5673082800       31.4431000996
  H        12.5661137569        6.4069221356       31.7343931843
  H        11.9063196765        5.9446861176       33.8801146288
  H        10.2900389812        5.4636089824       34.4677056293
  H        11.6090700245        4.3958004726       33.5594958960
  C        10.3268592099        5.7349272409       29.1452796235
  H        11.9269876198        4.8474536235       29.9379371736
  H        12.1746925459        6.4621005050       29.2009864287
  C        10.5231828583        5.5347871776       27.6124662356
  H         9.7613443686        4.9653036103       29.7679068061
  H         9.8040765305        6.7026585076       29.3377709182
  C         9.2571116416        4.9229780689       26.9747641312
  H        11.4126984330        4.9784913051       27.3417343709
  H        10.7757224409        6.5016898015       27.0660651166
  C         8.1778189247        5.9161246004       26.3732193587
  H         9.5817192162        4.3994955591       26.0854186378
  H         8.7359042491        4.1835386973       27.6771173328
  C         7.0919339711        5.2014095720       25.6109475350
  H         7.7121111848        6.3686563622       27.2287408424
  H         8.6482387349        6.7675937076       25.9100951162
  C         6.7507093098        3.8752857332       26.3311145967
  C         7.5454384684        4.4596030941       24.3718193188
  C         5.9485080358        6.1701043840       25.1969893364
  C         6.9798144420        2.7388163029       25.5702740886
  C         6.2655339089        3.5026270571       27.6215080692
  C         7.5563017847        3.1136715871       24.3531975361
  C         8.0492499564        5.0597916439       23.1715349082
  H         6.2971328455        7.0118245503       24.5612213466
  H         5.7000076961        6.7722606239       26.0018240859
  C         4.6920270365        5.5417727608       24.5467272506
  S         6.5566404075        1.2282338129       26.3271693931
  C         6.0976804857        2.1401008378       27.7240483754
  H         6.1691567242        4.2440732050       28.3039605921
  C         7.9858138528        2.3977426600       23.2777021410
  H         8.0089701579        6.1381442522       23.0075255812
  C         8.4754182483        4.3255190744       22.1053971815
  H         4.8888306719        5.2365490882       23.5875200379
  H         4.4726584215        4.6330600245       25.0634468659
  C         3.3688958390        6.3107903923       24.6082803841
  C         5.5473492495        1.4330559533       28.9156677919
  C         8.4613478283        3.0009291077       22.1530883701
  H         8.0631507294        1.3245941696       23.3742395489
  C         8.9785264687        4.6576786816       20.8935844395
  H         2.7309486712        5.7421254660       23.9604009503
  H         3.5243726904        7.2760802140       24.1885996396
  C         2.7080913535        6.3741745895       26.0425263324
  C         5.6867509761        0.0459956499       29.1831959078
  C         5.0867982674        2.2353834243       30.0829720351
  C         8.8017507527        2.1912803472       20.8964884101
  C         9.0706988346        3.5152888678       20.1031591533
  S         9.4162019169        6.1186086435       20.1269528206
  H         1.8208895085        6.9951805614       25.9121174786
  H         3.2185940601        6.8898219938       26.8365469328
  C         2.2148511740        4.9641895986       26.5195358122
  N         6.2335064892       -0.9133694496       28.2830168970
  C         5.3700171791       -0.5281822327       30.4156849503
  C         4.7572894462        1.5942242625       31.3208018204
  H         4.7929783958        3.2830199448       29.9217876268
  C         7.6590433029        1.4438853844       20.1431035437
  C        10.1204940848        1.4237436003       20.9407547194
  C         9.3692323740        3.9130041187       18.7885462698
  C         9.6047389197        5.2898204453       18.6147062462
  H         1.7338407627        4.6254757620       25.6193104857
  H         3.0141002575        4.3196991778       26.7103338455
  C         1.2084796006        5.0300924319       27.6078234238
  S         6.1274870878       -2.3664034310       28.9424694106
  N         5.6693142092       -1.8973483031       30.4435167314
  C         5.0028469733        0.1368950902       31.5701015123
  H         4.3073625481        2.1565828136       32.1581499735
  H         7.4554931565        0.5199507394       20.7227733305
  H         8.1257401070        1.0824730792       19.2689858066
  C         6.3093494722        2.0630144966       19.9769721730
  H        10.4035623107        1.0836381820       19.9601767138
  H        10.0476235525        0.4852461707       21.5009998711
  C        11.3036827708        2.2619279891       21.4150047085
  H         9.5609036698        3.1651075659       18.0995614956
  C         9.9429050235        5.9906458310       17.3955547691
  H         0.6714869160        4.0926150500       27.6024281197
  H         0.5397739685        5.8584506473       27.4321191806
  C         1.9612860776        5.1789124563       28.9383511919
  C         4.9276785034       -0.6188918089       32.8090589941
  H         6.4419007150        3.1155446226       19.9220997844
  H         5.5847455521        1.7174461900       20.7121468742
  C         5.7894101261        1.7552021467       18.6182703992
  H        10.9660306526        2.7436288462       22.3789042912
  H        11.5331874151        2.9348546211       20.6392354606
  C        12.5633487708        1.3947455732       21.5083306215
  C         9.8164821394        7.3523081429       17.1764082597
  C        10.3448830744        5.1818646646       16.1920041287
  H         2.3665200626        4.2581448850       29.3035729262
  H         2.8120609437        5.8472650458       28.9082650855
  C         1.0193134367        5.6323475377       30.0191913684
  H         5.2600907764       -1.6400061244       32.7708654891
  C         4.5850084689       -0.2418954848       34.0913596564
  H         5.8655744005        0.6758957354       18.4340782752
  H         6.3487792772        2.1706758770       17.7881221733
  C         4.4061208429        2.3354553439       18.4806212677
  H        12.4211252088        0.7643441524       22.4161312580
  H        12.7120175498        0.8029172672       20.6026554814
  C        13.6608931913        2.4061478421       21.8095827095
  N         9.3923729332        8.2901408027       18.1306404551
  C        10.0804869414        7.9190909759       15.9236238509
  C        10.4679925817        5.7146098481       14.9039092479
  H        10.4216283124        4.1664263552       16.3791432046
  H         0.0320264888        6.0931116363       29.6904488356
  H         0.8307550588        4.8472646761       30.7048954954
  H         1.5550018349        6.4107731909       30.5855907764
  S         4.1370642814        1.3422863613       34.4940111517
  C         4.7580870151       -1.2587431846       35.1614184110
  H         4.3615094159        3.2681919970       18.9750807287
  H         4.0906699184        2.5699945052       17.4293580097
  C         3.4029041106        1.1865335497       18.9124539904
  H        13.3139573544        3.0546712621       22.5436273119
  H        14.0098875272        2.9780583953       20.9551582329
  C        14.8712006098        1.6646984964       22.4676596793
  S         9.5451074659        9.7507077668       17.4610455067
  N        10.1265488935        9.3268904491       15.9711126872
  C        10.4021811597        7.2224278771       14.7758894824
  H        10.4249790465        5.0264811155       14.0971941316
  C         4.0029603715        0.7191014551       36.0957706122
  N         4.4204933967       -0.5428946880       36.3132792137
  O         5.3333995688       -2.3373419977       35.0781139370
  H         2.3914864311        1.6024616272       18.8953587066
  H         3.5475505937        0.7532210082       19.9071617498
  C         3.2581367227        0.0924160579       17.8667325821
  H        14.4585935210        0.9836750331       23.1888013882
  H        15.3669788085        1.1106872440       21.7099777427
  C        15.7655787606        2.6666983314       23.3522421032
  C        10.8083267443        8.0077180218       13.6255434590
  S         3.7778266619        1.6760973907       37.5260521164
  C         4.7936973768       -1.2164539631       37.5627618616
  H         3.0218854437        0.3873115713       16.7844981062
  H         4.3017815189       -0.4589527985       17.9760470733
  C         2.2287734470       -0.9802781123       18.2033754730
  H        15.2325227524        2.9422387656       24.2874375275
  H        15.8381872523        3.6450541024       22.8531231719
  C        17.1393303877        2.0781029196       23.6364572384
  H        10.6072095294        9.0491217696       13.6540402902
  C        11.3815353035        7.6213918874       12.4044454545
  H         4.1717042763       -0.9890440899       38.4197071753
  H         4.5730699828       -2.2256363118       37.4428531781
  C         6.2567262033       -0.9613954333       37.9727490075
  H         1.2637259189       -0.4680836157       18.4137597019
  H         2.4004742089       -1.4559794208       19.1345250656
  C         2.0166456357       -1.9706827345       17.0680633134
  H        17.7217026054        2.8267565383       24.2828901690
  H        17.0207561663        1.1505245185       24.1793372596
  C        17.9682172837        1.7778921219       22.3880577929
  S        12.0125562602        6.0400607424       12.1432714003
  C        11.6775964934        8.6579780503       11.4399931549
  H         6.6017615648        0.0471272271       37.9972226303
  H         6.3983102857       -1.2357811092       38.9769152525
  H         6.9396424378       -1.6050967487       37.4678379381
  H         1.2866736055       -2.7106082768       17.3499100034
  H         2.9651179000       -2.4859730419       16.8249214938
  H         1.5945088310       -1.4069613002       16.1521202052
  H        19.0190054098        1.8165657421       22.6316949556
  H        17.8157265263        2.5586774671       21.5650763783
  H        17.7233677873        0.8437340440       21.8655713375
  C        12.5282895712        6.6939969434       10.5728493536
  N        12.3481669644        8.0601257190       10.4458127122
  O        11.3228910106        9.8676168304       11.4812511175
  S        13.4012114741        5.8496174432        9.2567693570
  C        12.6855314618        8.7884849399        9.2659036163
  H        12.6919554189        9.8273138007        9.6322404391
  H        13.6971164569        8.4902004442        8.8694839481
  C        11.6340983256        8.7378587956        8.2465410318
  H        11.2381071222        9.7373565474        8.0201626656
  H        11.9290162113        8.2677846997        7.3446619691
  H        10.8866413408        8.0885070317        8.6235164946
  H         4.0872131778        1.3118853753       12.6380164648
  C         4.3499835646        2.3195060115       12.8242873591
  H         5.4547956841        2.1476193914       12.8707338115
  C         3.8533443419        3.2309511334       11.6282551327
  C         3.8251775528        2.6448896842       14.2518327386
  C         4.8568709849        3.2780565303       10.4997321282
  H         3.8381644127        4.2375893797       12.0451786759
  H         2.8274503357        2.8891129281       11.3292165724
  H         4.2874711958        1.9218199836       14.9415827000
  H         2.7883939571        2.5955798559       14.3316735076
  H         4.1214464994        3.5701194537       14.6966632520
  C         5.1906866666        1.8613290234       10.0448372527
  H         4.6453063118        3.9216634950        9.6787643591
  H         5.7719677351        3.6197585371       11.0212758862
  C         5.7459363736        1.7855459805        8.6295840524
  H         4.2735539678        1.3406604427        9.9954054769
  H         5.8648826720        1.3232212880       10.7576715457
  C         7.0006075659        2.5686096599        8.4356616389
  H         4.9685537306        2.1319116247        7.9450112248
  H         5.8021924969        0.7271489771        8.3184899155
  C         8.2179696549        1.8315985928        9.0409762662
  H         7.1736056493        2.6427718134        7.3124279723
  H         6.7728624852        3.5322869361        8.8761140504
  C         9.3939021243        2.7304776409        9.1511446936
  H         8.4176651785        0.9538738392        8.4923115594
  H         7.9078903495        1.5124733184        9.9982210627
  C         9.0672659881        4.0873127903        9.8176145319
  C         9.7661044893        3.4104149624        7.8614470323
  C        10.6066265632        2.0079754012        9.7832315478
  C         9.1947694097        5.1678804669        9.0217445160
  C         8.5857275146        4.4457712515       11.0542404841
  C         9.6684769916        4.7750473751        7.7808306084
  C        10.2066693823        2.7587248410        6.7144667759
  H        10.0861936957        1.2488655156       10.4802365392
  H        11.1787610688        1.4703731579        9.0171736527
  C        11.6636394583        2.9193885249       10.3571091425
  S         8.5836605461        6.6505787398        9.6789714128
  C         8.1611117254        5.7396979311       11.1116983872
  H         8.3422923544        3.7210259788       11.8315837204
  C        10.0615148403        5.3917930511        6.6327381748
  H        10.1315252530        1.6602428430        6.7503916340
  C        10.5337006856        3.4491312901        5.5324188193
  H        11.2484513336        3.7144443228       10.9626785276
  H        12.2622509457        3.4385539965        9.5944617752
  C        12.6934540670        2.1982147080       11.2363528692
  C         7.5024156388        6.4269619050       12.2601076552
  C        10.5757860705        4.7798927100        5.4363562358
  H         9.9810060714        6.5042690399        6.6208193691
  C        10.8627325647        3.0518823026        4.2539264837
  H        13.6942092557        2.4665940070       10.8723357115
  H        12.4115228438        1.1718935008       11.2059562981
  C        12.6680312323        2.7684690291       12.6103688696
  C         7.7323409303        7.7915174800       12.6555903222
  C         6.9258147035        5.6084119260       13.3466895008
  C        10.9460108959        5.5057686618        4.1665905887
  C        11.0842131737        4.1349873978        3.4515256477
  S        11.2364624928        1.5292987482        3.5277435323
  H        13.3572481925        3.6075307899       12.6977436284
  H        11.6332350459        3.2218686737       12.7790467394
  C        12.9118196867        1.7225829578       13.6245239250
  N         8.2331450514        8.8376292330       11.7956951534
  C         7.4356715481        8.2621976960       13.9235434572
  C         6.6455411814        6.0707675711       14.5859275814
  H         6.7085037805        4.5547329357       13.0991587040
  C        12.1982926293        6.3547712341        4.2704144729
  C         9.8001943714        6.3472191204        3.5381725126
  C        11.4516386780        3.7326550964        2.1663634685
  C        11.4167022385        2.3421551069        2.0501253388
  H        13.8446323587        1.4132633234       13.3967684681
  H        12.2137072197        0.9247689596       13.5488929847
  C        13.0452105501        2.2984464650       15.0369909320
  S         8.1204003885       10.2030931940       12.6615215419
  N         7.7017031389        9.6124700959       14.0554633904
  C         6.8856730366        7.5275363536       14.9840912925
  H         6.1198345378        5.4220548083       15.3024762264
  H        11.8947214388        7.2807123865        4.7238166965
  H        12.4077557584        6.5821977078        3.2567652601
  C        13.3936644034        5.6521077753        4.8588574819
  H         9.6268898357        7.1215263869        4.2269544096
  H        10.2489429599        6.6871515062        2.6139559221
  C         8.5401873369        5.5336339379        3.2549680673
  H        11.7116233956        4.5191423978        1.4715225391
  C        11.7360955898        1.4869001843        0.8376259579
  H        13.9397202708        2.7450521545       15.2184417617
  H        12.2426394501        3.0746004022       15.2219239045
  C        12.7800580098        1.2279923962       16.0902593383
  C         6.5997406202        8.1183426301       16.2453311424
  H        13.1492068977        5.2162733186        5.8536483794
  H        13.7631688863        4.8073557868        4.2339042884
  C        14.5184838987        6.5957110496        5.0648865429
  H         8.2019794834        4.9331390314        4.0800187502
  H         8.7049491792        4.8215247814        2.4720055524
  C         7.4022148445        6.3360843193        2.6516657781
  C        11.7359997516        0.0340168115        0.7227561570
  C        11.9105250463        2.2111487173       -0.4419431180
  H        13.5591444411        0.5080550242       16.2525015162
  H        11.9228336120        0.5586538519       15.7913996257
  C        12.3852641865        1.7960421180       17.4845634737
  H         6.6620693553        9.2016471937       16.2095531591
  C         6.3085877367        7.5941789678       17.4784790223
  H        14.4591507694        6.9867919919        6.0929043015
  H        14.4754477550        7.3646092514        4.2882035729
  C        15.8660116759        5.8151827501        4.9629260924
  H         7.1535815436        7.0908632583        3.4346954250
  H         7.6981037325        6.9384464826        1.7957104278
  C         6.0791141815        5.5309236252        2.4067802501
  N        11.5458335022       -0.8356891922        1.8047499156
  C        12.1485844202       -0.6707295507       -0.4430332898
  C        12.1755562798        1.5369289235       -1.5922904811
  H        11.8045040064        3.2655128153       -0.4529006978
  H        13.1987091852        2.3341579091       17.9891798603
  H        12.0732554270        1.0420907072       18.2501994172
  H        11.6466621782        2.5558043595       17.5516568453
  S         6.0924010103        5.9194657540       17.9868506077
  C         6.1450297441        8.5643578639       18.6263656451
  H        15.7349392067        4.8936836212        4.4242022330
  H        16.5854514732        6.4600260460        4.4774581581
  C        16.3784047600        5.5238002450        6.3844201060
  H         5.7218110760        5.1063465186        3.3233695376
  H         6.3114578541        4.6909764018        1.7555260125
  C         4.9742065172        6.3916734430        1.7785157714
  S        11.9275174663       -2.3499173287        1.3284699840
  N        12.0987172287       -2.0100393000       -0.2366828903
  C        12.4453209291        0.0649523110       -1.6004548157
  H        12.4547254470        2.0462042148       -2.4698008021
  C         5.9057714973        6.5416680876       19.6021743084
  N         6.1134401111        7.8953369374       19.7672454081
  O         6.2579726044        9.7936641635       18.6050504701
  H        16.4178269706        6.5668301834        6.7314437536
  H        15.6247482323        4.9300680461        7.0016958088
  C        17.7385902717        4.7808496030        6.5156776863
  H         5.4949129421        6.9249906594        0.9490220815
  H         4.1918843030        5.7731219173        1.2724841894
  C         4.4126957989        7.4204720425        2.7456381145
  C        12.6442241320       -0.6922362002       -2.7658546150
  S         5.7894016937        5.5856167328       21.1062440014
  C         6.0421713014        8.5639600685       21.0422028416
  H        17.8994889623        4.5507983996        7.5711256862
  H        17.6185541418        3.7975531998        5.9923768240
  C        18.8530222210        5.5671524826        5.8817991255
  H         4.8705574843        7.2838273363        3.7416966489
  H         3.3777487761        7.1078544075        2.8829280851
  C         4.5014160467        8.9032180612        2.3309477351
  H        12.4931268979       -1.7267688431       -2.5221883058
  C        13.2263522407       -0.3881486816       -3.9674590321
  H         5.5617542140        7.9422667164       21.8167739937
  H         5.3709523891        9.3371003857       20.9431501380
  C         7.3944222357        9.1869832094       21.4949769127
  H        18.6821656920        6.5795611087        6.1452834465
  H        18.8744290897        5.3951164188        4.8275494793
  C        20.3128693466        5.3559325491        6.3486080505
  H         4.5170562214        9.5372646963        3.1956194510
  H         5.4380567138        8.9830947549        1.7741466024
  C         3.2490731344        9.0786393238        1.3730216786
  S        13.7662571332        1.1272066452       -4.4431742128
  C        13.2345547228       -1.4487439464       -4.9827829745
  H         8.0504415848        9.1703247522       20.6653845796
  H         7.8651478567        8.5536729402       22.2273702322
  H         7.3476706549       10.2267653425       21.7995814346
  H        20.7320463158        4.6860162015        5.6939233052
  H        20.8887389581        6.2592353932        6.2703468304
  H        20.3325795819        4.9159886769        7.3003600223
  H         3.2354035555       10.1044673254        0.9982483997
  H         3.1666668359        8.3724634800        0.5527129028
  H         2.3219899643        8.9797337498        1.9828017428
  C        14.1562973508        0.3142284224       -5.9276975557
  N        13.8336353007       -1.0029740560       -6.0726007457
  O        12.8227992688       -2.5910494801       -4.7311518261
  S        14.6565116329        1.2113083379       -7.3014817658
  C        13.9421854292       -1.7608183602       -7.3789913484
  H        14.1995769653       -2.7913518568       -7.2372775438
  H        14.7690570973       -1.3669744662       -7.9298782571
  C        12.6034183453       -1.7456516196       -8.0887310279
  H        11.8112147781       -2.3455838112       -7.5359077596
  H        12.6975729643       -2.2643531467       -8.9936379962
  H        12.2599800607       -0.7200828942       -8.1855050017
