352
 i =    12100, time =     6050.000, E =       129.4245778410
  H        10.1491743201        4.0792965741       32.6276258890
  C        10.5353813412        5.0886128784       32.7941084961
  H         9.9537428596        5.5103188196       33.6088035559
  C        10.1231293429        5.9075987399       31.5359939243
  C        12.0197484004        5.3973875414       33.1135249517
  C        10.7717029864        5.3490108188       30.2222155150
  H         9.0172594886        5.7994465627       31.5162416967
  H        10.4216716623        7.0090736635       31.4736358870
  H        12.3039700044        4.9721102238       34.0798172876
  H        12.6321414452        4.9092300982       32.3990295156
  H        12.1957295118        6.4990526342       33.0958216387
  C         9.7645426604        5.3800810661       29.0556291962
  H        11.1396069182        4.3492440541       30.4330867185
  H        11.6838581090        5.8810828524       29.8639218772
  C        10.4571141299        5.5035464387       27.7333536363
  H         9.1189235456        4.4693031740       28.9771232359
  H         9.1231834907        6.3096636339       29.2135244629
  C         9.6636490608        4.8789342584       26.6238074596
  H        11.3510047850        4.9183464880       27.8146424926
  H        10.7656890857        6.5252866029       27.4500494363
  C         8.4893874676        5.7834115132       26.2259624481
  H        10.2288173624        4.6284026595       25.7450314852
  H         9.2439363251        3.9558417841       27.0019735451
  C         7.3442163397        5.2192834203       25.3755085352
  H         8.0962502143        6.2676160551       27.0998792632
  H         8.9155535552        6.6317605153       25.5967555393
  C         6.9259424007        3.8815861515       26.0936410298
  C         7.7370766337        4.4276882156       24.1822296356
  C         6.1500137566        6.1845580377       25.0778873101
  C         7.1512882110        2.7139439159       25.3294843554
  C         6.4359179215        3.4481944517       27.3044027224
  C         7.6231989181        3.0810045575       24.1271671945
  C         8.2935331716        5.0357900239       23.0348629503
  H         6.4856777091        6.9441144296       24.3765294710
  H         5.9824548171        6.8246990883       25.9395053526
  C         4.8649204364        5.4774970866       24.5774308645
  S         6.5683747029        1.2481505925       25.9969738639
  C         6.3858867072        2.1049960066       27.4697542089
  H         6.2834284880        4.2597700116       28.0197821702
  C         7.9498088529        2.4272533447       22.9790485605
  H         8.3687558454        6.0838540424       22.9890118398
  C         8.5241923889        4.4346647860       21.8873316051
  H         5.1346290860        5.0292536956       23.5944981900
  H         4.7749217617        4.6606902502       25.3462165359
  C         3.6164013928        6.4465851807       24.3063883156
  C         5.8077620143        1.3711890506       28.6550699010
  C         8.4052992218        3.0832720029       21.7937374723
  H         7.6942154506        1.3674584257       22.9320097491
  C         8.8574216059        4.9141309814       20.6543580657
  H         3.0841678934        6.0303063857       23.4652097622
  H         4.0055082151        7.3680892542       23.7548391537
  C         2.7306891535        6.8008062036       25.4671282818
  C         5.7350711765        0.0048977919       28.8251334648
  C         5.2971511137        2.2422442011       29.7552458150
  C         8.9326442622        2.4809281130       20.5395020818
  C         9.0821320817        3.8028916069       19.8211990887
  S         9.2247217878        6.4622771418       19.9976843395
  H         1.9249834520        7.2831205000       24.9779579174
  H         3.2166808813        7.3823076148       26.1143743980
  C         2.2015457614        5.6333192794       26.2713928470
  N         6.1192746925       -1.0817078052       27.9331820252
  C         5.4865285300       -0.5336140510       30.0856198387
  C         4.8761151240        1.6387381779       30.9987224554
  H         5.1128099964        3.3022357514       29.6880258386
  C         7.8469283349        1.5160031099       19.9350173172
  C        10.2882250828        1.8085898951       20.7656960030
  C         9.5364827053        4.2012405959       18.5776172097
  C         9.6046795988        5.6120646474       18.4795587896
  H         1.9336334558        4.9795738306       25.4449843394
  H         3.0094415282        5.0920946251       26.7674109707
  C         0.9500412495        5.8771946976       27.1101693103
  S         6.0557434731       -2.5544778021       28.6691035036
  N         5.5977514751       -1.9417278250       30.1148293913
  C         5.0664809761        0.2132821919       31.2361235987
  H         4.4236136021        2.3644725604       31.7095927906
  H         7.3536829475        0.9529292420       20.7126053063
  H         8.2945636278        0.7068212955       19.2850197678
  C         6.6649227992        2.2093353802       19.2258701438
  H        10.4145562859        1.1126836072       19.9470378308
  H        10.3017321811        1.1485565722       21.5682540962
  C        11.5151631059        2.7027812651       20.9677198577
  H         9.6899261116        3.4017831920       17.8859423114
  C         9.8852139258        6.4113672610       17.2764017486
  H         0.0125115549        5.5906406515       26.6574176328
  H         0.9312977402        6.9329707353       27.2766260092
  C         0.8068106405        4.9732191905       28.3264059464
  C         4.9307202479       -0.4930877196       32.4794261564
  H         6.9473580919        2.6475056358       18.2915903241
  H         6.3189663645        3.1198788575       19.7870338589
  C         5.4204021653        1.2568948986       18.9980010520
  H        11.5590989254        3.4221823137       21.7874176459
  H        11.7348777825        3.3805530947       20.1040118907
  C        12.7806514920        1.8178780530       21.1633273647
  C         9.7622354122        7.7950042532       17.0925333907
  C        10.2775256557        5.5994337126       16.1048995506
  H        -0.1262574963        4.4161620310       28.4198849308
  H         1.5809333893        4.1886442351       28.1908697597
  C         0.8800675372        5.6875450991       29.7051051837
  H         5.0007662580       -1.5605952963       32.3943521984
  C         4.6021113237       -0.0479916282       33.7095124908
  H         5.0270398074        0.6981277905       19.9072680192
  H         5.6893929362        0.4326714307       18.3018287762
  C         4.3132845858        1.9148217245       18.2419843150
  H        12.7343660922        1.0474563025       21.9501970475
  H        12.9585491491        1.3361064888       20.2175129293
  C        14.0774197587        2.6005526602       21.6744403395
  N         9.3120939232        8.6595676915       18.0359962533
  C        10.1901128169        8.4890070291       15.9253450284
  C        10.5910932570        6.2927389653       14.8896450988
  H        10.2777552795        4.4863585429       16.1976070522
  H         0.7547622122        4.9434772464       30.3956874368
  H         1.8583600575        6.0994106676       29.6984054696
  H         0.1080988414        6.5226428279       29.8580297099
  S         4.3548880476        1.5922666149       34.1492989331
  C         4.4444312707       -1.0980654001       34.7924549938
  H         4.1749187538        2.8976667771       18.6965623846
  H         4.5911861862        2.1525522005       17.2178594691
  C         2.9568584933        1.2417839755       18.2877246178
  H        13.9454665781        3.5091272509       21.2249613833
  H        15.0082925447        2.2498982627       21.3669381783
  C        14.1855978953        2.8410263055       23.1474122873
  S         9.3576641704       10.2204997386       17.4903427872
  N        10.0719661200        9.8770303913       16.0499051563
  C        10.5682105355        7.8064506384       14.7937961958
  H        10.9660516308        5.7031379308       13.9979329736
  C         4.0751677266        0.9867623353       35.7865654238
  N         4.0064573331       -0.3848564108       35.8748949141
  O         4.3907824539       -2.3199805540       34.5821236293
  H         2.2267006804        1.9952477698       17.8940918550
  H         2.7335936808        1.1204356725       19.3761462776
  C         2.8500949106       -0.0849423014       17.5418332639
  H        13.3453917224        3.5378138993       23.5485816138
  H        14.1244945567        1.8663323644       23.5768313285
  C        15.6194339132        3.3445207701       23.4403825951
  C        10.9143643200        8.5839386601       13.6177787876
  S         3.6484288105        2.0020375008       37.1090824075
  C         3.7647522325       -1.0297212909       37.1425033910
  H         2.7859091333        0.1790953960       16.4527403646
  H         3.8173986186       -0.5157590497       17.7356757312
  C         1.7062545473       -0.9826615815       17.9945976798
  H        15.5156659820        3.8272065184       24.4288064604
  H        15.7976154776        4.1318994250       22.7280538555
  C        16.6822647483        2.2943527937       23.5418426889
  H        11.0386996417        9.6008719229       13.7476009554
  C        11.1790162194        8.2730767644       12.2874161048
  H         2.8593006094       -0.7211098516       37.5653799984
  H         3.6587840934       -2.1255761722       36.9706721873
  C         4.9568999049       -0.9885989292       37.9846521284
  H         0.9201328015       -0.2815356523       18.2809190081
  H         2.0195657553       -1.4721629474       18.8457532217
  C         1.3512521273       -2.1903110128       17.0880227344
  H        16.7621069667        1.9145901543       24.5316373731
  H        16.4554646549        1.4630763422       22.9016956527
  C        18.0843712853        2.7536743541       23.0611635042
  S        11.5479328483        6.6996213808       11.7024653687
  C        11.4272104885        9.4097904422       11.3739972410
  H         4.6821969591       -1.0078499779       38.9606577584
  H         5.7504538743       -1.7211334176       37.7478386566
  H         5.4632202390       -0.0245693614       37.9291712951
  H         0.6616709532       -2.8208007749       17.6778153509
  H         2.1478490002       -2.9020952164       16.9443581807
  H         1.0839660625       -1.9014642168       16.0407002801
  H        18.0878707415        3.5357707849       22.2885163188
  H        18.7264234437        1.9012814878       22.6079439208
  H        18.5986350561        3.1381388131       23.9045514946
  C        11.9914792212        7.5769593622       10.2075682307
  N        12.0231550532        8.9324100479       10.2891385759
  O        11.3470865787       10.5689641604       11.7887138528
  S        12.6235505234        6.7133877153        8.7322614578
  C        12.0570958305        9.7622350065        9.0878626015
  H        12.3163998181       10.7649702842        9.3365585377
  H        12.7363506330        9.2889796389        8.3232235861
  C        10.6401515681        9.7227996758        8.3719627028
  H        10.7784611850       10.4335622807        7.5902251258
  H        10.5007298229        8.7835190042        7.9009484455
  H         9.8744050365       10.1116298252        8.9989331373
  H         4.5469898141        1.8803701405       12.7515631579
  C         3.8762426392        2.6903645178       12.9060713519
  H         4.4270454080        3.6253264924       13.0752853380
  C         2.9891364099        2.8998425171       11.6876485580
  C         2.9677020553        2.4562280167       14.0986477712
  C         3.5686762469        3.0871219889       10.3313365351
  H         2.2824201977        3.7663816950       11.8089960870
  H         2.4837508551        1.9071484924       11.7772744585
  H         2.5053490809        1.4997941488       14.0646143639
  H         2.1809289325        3.1579447766       14.0286740367
  H         3.5098750551        2.4708558350       15.1037491343
  C         4.4288080660        1.8897904183        9.9063998469
  H         2.7947475361        3.2379889722        9.5973256133
  H         4.1983167203        3.9317078375       10.3401653666
  C         5.1606842623        2.0741376141        8.5592790471
  H         3.8954907709        0.9959692932        9.7753366462
  H         5.2396701935        1.6885559930       10.5925659306
  C         6.3355554122        2.9814173203        8.6431347070
  H         4.3792956917        2.3629143976        7.8284130890
  H         5.4254291824        1.0019216637        8.2437759665
  C         7.6390947156        2.2794789808        8.8959518957
  H         6.4404783507        3.3632250284        7.6341613889
  H         6.0576722781        3.8401548478        9.2043523935
  C         8.9783085310        3.0651556169        9.2368534310
  H         7.7861047718        1.7035393018        7.9941161448
  H         7.4024685434        1.4811047387        9.5925039270
  C         8.6319493980        4.4117865980        9.9479209453
  C         9.3702781536        3.8237967731        8.0371931322
  C        10.1041228624        2.3519486681       10.1094207951
  C         8.7589706186        5.5224975559        9.1289004242
  C         8.4016613805        4.7744340154       11.2809276035
  C         9.2768091057        5.1421462263        7.9316252960
  C         9.8493934339        3.2151569342        6.8736664395
  H         9.6250995012        2.1697115450       11.0933124078
  H        10.2982348040        1.3655064466        9.7076341882
  C        11.3762083133        3.1951176173       10.3526807845
  S         8.4558006314        7.0745045612       10.0213022716
  C         8.2442736763        6.1241404532       11.4790340551
  H         8.2826339185        4.0487601196       11.9715018135
  C         9.7917956937        5.8002267529        6.8952364573
  H         9.9701880349        2.1609771943        6.8658713477
  C        10.3710288909        3.8725935089        5.8149904399
  H        11.2378810557        4.2226408878       10.6053053228
  H        11.9602214865        3.3230436353        9.4800086657
  C        12.3400738380        2.4409423922       11.3855787932
  C         7.7807484672        6.8669483216       12.7214803843
  C        10.2315063266        5.1741410724        5.7161624197
  H         9.6226023726        6.8224623319        6.9668489738
  C        10.7979827677        3.4663207937        4.5555802596
  H        13.2333209832        2.9358418796       11.3488652979
  H        12.5145791915        1.4522312037       11.0081507596
  C        11.7774967206        2.3746248385       12.7921470957
  C         7.6486614950        8.2493887591       12.9211040816
  C         7.1749609037        5.9891458695       13.7862333524
  C        10.6302071549        5.9191693267        4.4462245552
  C        10.8823569887        4.5632381715        3.7139329547
  S        11.0368845245        1.9661688560        3.8016213277
  H        11.4275780550        3.2882030963       13.1449229876
  H        10.9029237427        1.6781168249       12.8467563669
  C        12.7945235918        2.0805884039       13.8936603396
  N         7.9298716185        9.2775082943       12.0106502289
  C         7.1743767752        8.7698502738       14.1392238610
  C         6.6966353103        6.5456674105       14.9728856490
  H         7.1176414032        4.9257212538       13.7296867103
  C        11.9366823894        6.7758200008        4.4919614132
  C         9.4680746663        6.7136461555        3.7787315458
  C        11.1150319031        4.1392343688        2.3828421905
  C        11.2391289122        2.7536953100        2.2947130161
  H        13.7140001602        2.6057005090       13.6429865044
  H        13.0312468234        1.0825319555       14.0629299281
  C        12.1171529703        2.4774708030       15.1645160779
  S         7.9541315360       10.6539291937       12.8366357078
  N         7.4857248487       10.1282105224       14.2815480436
  C         6.7429784057        8.0267782112       15.2325658823
  H         6.2210185890        5.8909541305       15.6599802523
  H        11.7204722285        7.5371839934        5.2590319682
  H        11.9970821769        7.2279374450        3.5294083138
  C        13.1766176288        5.9988614346        4.9649339412
  H         9.0775111779        7.5661215987        4.3329247315
  H         9.9396740930        7.1489866224        2.8905584674
  C         8.2002552306        5.8599151590        3.2784971872
  H        11.1807311052        4.8687401712        1.5753047590
  C        11.5842188093        1.9560818012        1.0244832122
  H        11.9782418052        3.5220017856       15.2971005111
  H        11.0434798075        2.1917135721       15.0853851289
  C        12.7464599779        1.9288064679       16.4515531768
  C         6.4390399780        8.6990894387       16.3843037520
  H        12.9769448641        5.3049207686        5.7629102784
  H        13.4678809458        5.4017460726        4.0567144858
  C        14.3676954862        6.9854487454        5.3047075297
  H         7.6372221445        5.4349232486        4.1222122459
  H         8.4930162737        4.9533848295        2.7185041642
  C         7.3268591013        6.7636000587        2.4390024938
  C        11.6120810133        0.5502403012        0.8601399480
  C        11.8282462166        2.6624037983       -0.2527467679
  H        13.6811885473        1.4920951831       16.2239907560
  H        12.1296647802        1.1005384942       16.7176019993
  C        13.1765209688        2.9399081616       17.4388334583
  H         6.5704994118        9.7023015707       16.2948209535
  C         6.2418770638        8.2338404552       17.6411139948
  H        14.1972232814        7.6233289496        6.1859097062
  H        14.4364557725        7.6518302162        4.5107424093
  C        15.7328483373        6.2435263633        5.3793540102
  H         7.1357521270        7.6838055846        3.0383862387
  H         7.9634564674        7.0836332602        1.5705324703
  C         6.0187559022        6.2667282290        1.9255822467
  N        11.3798419890       -0.3944792527        1.8587873531
  C        11.9770128716       -0.1425739738       -0.3046677326
  C        12.0425754810        1.9480315729       -1.4419644887
  H        11.8498955407        3.7548305510       -0.2978683407
  H        13.9752256424        3.4172911525       17.0418329744
  H        13.3465383200        2.3770116429       18.2908628492
  H        12.3361533718        3.6384876263       17.7115799616
  S         6.1774733352        6.6260151143       18.2250506716
  C         5.8499052518        9.3166326407       18.5903590803
  H        15.7422959375        5.3243017418        4.7796870421
  H        16.4085900644        6.9086050319        4.8423612253
  C        16.0941152392        5.8647758042        6.8836922712
  H         5.4122210450        5.8306716064        2.6592440241
  H         6.1483360332        5.5023584116        1.2313010679
  C         5.0711645160        7.4471074053        1.4741201306
  S        11.6333033950       -1.8689022031        1.4164652190
  N        12.1631557119       -1.5380603846       -0.0589170204
  C        12.2124462120        0.4712776745       -1.5348545244
  H        12.2816924856        2.3609922310       -2.3953198741
  C         5.9030988145        7.3625461333       19.8517309598
  N         5.5329323484        8.6886194247       19.7747000024
  O         5.7905660006       10.4915422010       18.3458814572
  H        15.8947445722        6.7293130102        7.5947334354
  H        15.3084800331        5.2027097610        7.2860860046
  C        17.4497193337        5.2494219258        6.9584267392
  H         5.6561679588        8.0660213178        0.8421957220
  H         4.3689185695        6.8462286237        0.9055454714
  C         4.4927287848        8.3598928584        2.5449978849
  C        12.5673296767       -0.2681289786       -2.6936406065
  S         5.4673272570        6.4979401990       21.2023645171
  C         5.4131947155        9.3383398697       21.0942562264
  H        17.6379204569        4.7313030088        7.9063761573
  H        17.5513382279        4.3497401882        6.3523274680
  C        18.5585989633        6.2756680625        6.5995775936
  H         5.3139707230        8.7878223304        3.0062164612
  H         3.9423261081        7.7481445015        3.2854565052
  C         3.6921277710        9.4919489225        1.7839562679
  H        12.4209912121       -1.3485689229       -2.6933384540
  C        13.1642254796        0.0650814547       -3.8824961725
  H         4.6967655586        8.9096030591       21.8165071634
  H         4.9464144977       10.2301608780       20.8411096753
  C         6.7776946932        9.7615301648       21.7394106771
  H        18.3149001765        7.1088068251        7.2865087766
  H        18.4383541721        6.5899721147        5.5404518402
  C        19.9340969294        5.6619477249        6.7743795466
  H         2.9594526336        9.1416581671        1.1192964652
  H         3.1147702317       10.0648630829        2.5607829801
  C         4.5547405759       10.5486812273        1.1477383225
  S        13.7080013815        1.6541346475       -4.4294422422
  C        13.3865478871       -0.9863735956       -4.8551500542
  H         7.4031266219        8.8386361589       21.8176747755
  H         6.6870244834       10.2170483473       22.7134056222
  H         7.3653341748       10.4256599717       21.1102267951
  H        20.6733369210        6.3404993480        6.4587947921
  H        20.1397909690        5.4344929140        7.8174416386
  H        19.8504863196        4.8712138723        6.0903037201
  H         5.5701096425       10.3287933766        1.2720994194
  H         4.2617185885       10.7199545611        0.1529007211
  H         4.4715869517       11.4667057996        1.7170882714
  C        14.1808990587        0.8461811755       -5.9151068938
  N        13.9439676537       -0.4939350211       -5.9569469603
  O        13.0289761492       -2.1393329932       -4.7623000835
  S        14.8483300431        1.5524221595       -7.3940772641
  C        14.1354362621       -1.2290209865       -7.1579020305
  H        14.0794594087       -2.2871970544       -7.0699804455
  H        15.1433924467       -0.9173161889       -7.5316071888
  C        12.8944110401       -0.9673470039       -8.1518936407
  H        12.0543045446       -0.6057339025       -7.6131856055
  H        12.6368155670       -1.8006018166       -8.6733871636
  H        13.2030954566       -0.1583623402       -8.8101908618
