352
 i =    64100, time =    32050.000, E =        99.3632312390
  H        11.6370235009        5.0750890764       32.4006363331
  C        10.7974023034        5.7796164250       32.6976294622
  H         9.9719893600        5.1820399341       33.0038605720
  C        10.5265785978        6.6474907369       31.4350563759
  C        11.1783830091        6.6112995600       34.0299956588
  C        10.3544495356        5.8282303340       30.1124977703
  H         9.4760273440        6.9917723844       31.6054268004
  H        11.0678474693        7.6361165843       31.3413937242
  H        12.1721995168        7.0165391096       33.9829760375
  H        10.6285047252        7.5235814074       34.0962556468
  H        11.1832447400        6.0183278454       34.9461617870
  C        10.3983889284        6.7512819548       28.9242454808
  H         9.4810465700        5.1003800993       30.2481130723
  H        11.2516336026        5.3038399064       29.9781912194
  C        10.7977883545        5.9254930914       27.6665560461
  H         9.5131250716        7.3423657301       28.7354519196
  H        11.1747954462        7.4643096961       28.9950688038
  C         9.6757019026        5.1083887303       27.1265823905
  H        11.4770683061        5.1681710505       27.9240195765
  H        11.2011164202        6.6188924880       26.8702268561
  C         8.6298105624        5.9379258944       26.3624258231
  H        10.0939208082        4.4739898892       26.3652374410
  H         9.2020163964        4.5531388875       27.9388248835
  C         7.4616425152        5.1638922811       25.6299067590
  H         8.0886548640        6.5575049477       26.9611930560
  H         9.1653904514        6.3688312702       25.5540012031
  C         7.0083629031        3.8849579766       26.2350950815
  C         7.9078906845        4.5429661891       24.2986682546
  C         6.2595001276        6.1050251644       25.4194788904
  C         7.2060343094        2.8085822056       25.3317745037
  C         6.4555303882        3.4962420181       27.4938267490
  C         7.8123845208        3.1963241453       24.1361669393
  C         8.4109182172        5.2265189029       23.1913163677
  H         6.5548717817        6.8469104645       24.6494474031
  H         6.1269959078        6.7300248958       26.3093674400
  C         4.9078673343        5.3271203216       24.9788491574
  S         6.6829624087        1.2448750648       26.0569337760
  C         6.2002504436        2.1480961446       27.5854226216
  H         6.3583625052        4.1871423008       28.2775029962
  C         8.2579754118        2.6034345144       23.0027091530
  H         8.4287187328        6.4136345302       23.2455397891
  C         8.6957310577        4.6147968566       21.9804230118
  H         5.0692421388        4.7119499700       24.1321071096
  H         4.5459130902        4.5992968067       25.6666693767
  C         3.7255114393        6.2256856201       24.6816806180
  C         5.7899453214        1.4690677548       28.8923008955
  C         8.6517867707        3.2680534340       21.8654680398
  H         8.2181314723        1.5305149925       22.8456123030
  C         9.0434729598        5.1021931225       20.7377107180
  H         3.0009545017        5.7543669654       24.0694047892
  H         4.1253197155        7.1550600314       24.2047250597
  C         2.9808686183        6.6187633182       25.9674226987
  C         5.8335855891        0.0571716475       29.1600498346
  C         5.3561777485        2.2633963593       30.0573218044
  C         9.0331732817        2.7187698686       20.5722217581
  C         9.2647323411        4.0888817195       19.8822572448
  S         9.0322644737        6.6180904695       20.0655354343
  H         2.2809095447        7.4766075470       25.8868124945
  H         3.7317482077        6.9434175947       26.7332392106
  C         2.1509968991        5.4295974858       26.4936825814
  N         6.1993580178       -0.9184752669       28.1798422165
  C         5.5209849588       -0.4888200746       30.4087344443
  C         5.0979465205        1.6775287524       31.3003796817
  H         5.1727300017        3.3057575896       29.9533397815
  C         7.8566423684        1.8854034162       20.0094446377
  C        10.2630668359        1.7683614939       20.6661919307
  C         9.5054931549        4.6032969933       18.5548421415
  C         9.5110941099        5.9391113909       18.5140536463
  H         1.4259823460        5.0521085264       25.7182752298
  H         2.6991750837        4.4989868139       26.7528858780
  C         1.2651730392        5.8673599829       27.6567022589
  S         5.7570188719       -2.3717588309       28.7787538961
  N         5.5315709821       -1.8968169051       30.3444735480
  C         5.2355783041        0.2738841305       31.5640541650
  H         4.6753026258        2.3614539695       32.0466939222
  H         7.4385446834        1.2272747904       20.7171443394
  H         8.2272311568        1.1507823949       19.2834713414
  C         6.7322996311        2.6622772988       19.3947572148
  H        10.4235463709        1.4157778892       19.6286449711
  H        10.0667115123        0.9325925189       21.3353664520
  C        11.5055787398        2.6149586353       21.1055562680
  H         9.8041169005        3.9555040075       17.7582279750
  C         9.8509805151        6.7255656970       17.2900581235
  H         0.3459041139        5.2813593153       27.8213740541
  H         0.8379675523        6.8228529636       27.4247837383
  C         2.0167056573        5.8750138663       28.9653000007
  C         4.9413008618       -0.4055020076       32.7757224072
  H         7.0769689808        3.3044202548       18.5948332578
  H         6.1809400342        3.1540808938       20.1951046463
  C         5.5765083111        1.7088697665       18.9312306313
  H        11.3261888148        3.0970142074       22.0888884756
  H        11.7723939684        3.4532303723       20.4548628876
  C        12.7420788452        1.7457366133       21.1886157105
  C         9.9913387193        8.1186616974       17.1637024979
  C         9.9261562612        6.0405997834       15.9646585577
  H         2.7108168958        5.0534261623       28.8731470604
  H         2.4665635518        6.8322787488       28.9547637321
  C         1.1596317936        5.7680266644       30.1693514753
  H         4.9883410452       -1.4734555951       32.7835183824
  C         4.5856194310        0.0348965763       34.0476751218
  H         5.1871782769        0.9860822601       19.6224864964
  H         6.0228740087        1.0752644263       18.1328530523
  C         4.4004436312        2.3933535745       18.3032368295
  H        12.6507203038        1.1083323216       22.0340795927
  H        12.8921919450        1.1358247397       20.3001489431
  C        14.0071703329        2.5081505711       21.4148898152
  N         9.6922452467        9.0050681236       18.1779663144
  C        10.3632276546        8.7863231114       15.9769786441
  C        10.2819085360        6.7368913136       14.7900859532
  H         9.7502796632        4.9618061058       15.8010192644
  H         0.5409392476        4.8582633974       30.1842477477
  H         1.9180992102        5.6588523782       31.0093304070
  H         0.5797335841        6.7211679171       30.3913029017
  S         4.3488373576        1.6591996533       34.4372934473
  C         4.3570711366       -0.9592799333       35.1125994223
  H         4.1690580843        3.3185827195       18.8325629927
  H         4.7342499924        2.7185863636       17.2667866136
  C         3.0702348356        1.5528359804       18.2218950676
  H        13.9962016830        3.4374876260       20.8316378987
  H        14.8236278944        1.9054747504       21.0726815370
  C        14.2472761273        2.9806571887       22.8560468442
  S         9.9194750683       10.5260789476       17.6441404250
  N        10.5241021599       10.1533791455       16.1946334812
  C        10.5703735130        8.1923561469       14.7396513783
  H        10.4245376104        6.1327584595       13.9278815242
  C         3.9706058553        1.1089445720       35.9985265583
  N         3.9166418980       -0.2025489003       36.1845591588
  O         4.4266575803       -2.1627247160       34.9962915831
  H         2.2167584801        2.0427457609       17.7373924941
  H         2.7296558263        1.4218370400       19.2002623269
  C         3.2612770676        0.2392131024       17.4836885980
  H        13.3576330193        3.3203955234       23.3399303172
  H        14.5661025346        2.1520293373       23.5349168638
  C        15.2921590111        4.0812320957       22.9373403772
  C        10.9394298317        8.9637328572       13.5493671807
  S         3.6076122011        2.1857481120       37.3607740718
  C         3.7105422463       -0.7694781239       37.4871214016
  H         2.6550782189        0.3174451049       16.5392743046
  H         4.2710458503        0.1865651224       17.1294318739
  C         2.7228289138       -0.9863229385       18.2653449979
  H        15.4126057420        4.3067184697       24.0531582458
  H        14.9124549045        4.9777294439       22.6029723533
  C        16.5955187048        3.6734775728       22.3753320368
  H        10.7783026416       10.0330506836       13.6120316222
  C        11.2251173311        8.5301953923       12.3141042248
  H         2.8186723152       -0.2842096790       37.8898023694
  H         3.5276276381       -1.8464001523       37.3911623142
  C         4.9594084612       -0.5802281159       38.4158502921
  H         3.2783990327       -0.9383207053       19.2560599779
  H         3.0279736424       -1.8479121680       17.7402642351
  C         1.1679172692       -0.8725637618       18.4591842414
  H        16.4979257043        3.4819360509       21.3341915973
  H        17.2957416375        4.4567808423       22.4737370685
  C        17.2160058028        2.4299720878       23.0300507938
  S        11.7205465651        6.9654681289       11.7046506179
  C        11.2252587130        9.6663050653       11.3444603932
  H         5.7626123427       -1.4056915357       38.3073651364
  H         5.5252302923        0.3819123772       38.2182270119
  H         4.7099564304       -0.5957430743       39.4695267475
  H         0.7208855727       -1.8201988605       18.6471428513
  H         0.5845073062       -0.3574533652       17.7392066618
  H         1.0164941413       -0.2267905733       19.3479292758
  H        17.2032982598        2.6037628049       24.1611889504
  H        18.2771805773        2.2933384675       22.7809505760
  H        16.8056969783        1.4647611559       22.7721696691
  C        11.9954879415        7.8277520169       10.1531391984
  N        11.7600960476        9.1662924787       10.1718520064
  O        10.8802793172       10.8558990646       11.4390042565
  S        12.5238904568        7.0338404758        8.6510266923
  C        11.9095391882        9.9331684492        8.9691828049
  H        12.1900540769       10.9487759939        9.2747553015
  H        12.8045980656        9.6982367044        8.3074877315
  C        10.6160385207        9.9859165000        8.1639171699
  H        10.6353456128       10.7428068797        7.3733196357
  H        10.4218123419        9.0476054563        7.6677431213
  H         9.7803500849       10.3222792381        8.8164940742
  H         3.7985445955        1.4727620041       12.4240091316
  C         3.7628160738        2.5837972033       12.6283776036
  H         4.7915168282        2.8431431859       12.6942902154
  C         3.1388448668        3.3987749310       11.5185341597
  C         3.2576095688        2.6681437810       14.0785408216
  C         3.9156597979        3.5555559884       10.1661163345
  H         3.0532117763        4.4356345750       11.8254961811
  H         2.1544716665        3.0986955146       11.3676555173
  H         4.0603204004        2.6264396346       14.7852277222
  H         2.4702049070        1.9334061064       14.3515561419
  H         2.6611050162        3.5298353363       14.3369240301
  C         4.5281794967        2.1689821958        9.8017990577
  H         3.2939822666        3.7128005757        9.3285192355
  H         4.6655766891        4.3534891949       10.2841754057
  C         5.2082163705        2.0638755921        8.4445787195
  H         3.5956300433        1.5879518957        9.6610903780
  H         5.1626238354        1.7611138292       10.6075808424
  C         6.4914614342        2.9378429429        8.3865293445
  H         4.5524825270        2.4299637786        7.6693687048
  H         5.2994002142        1.0741083732        7.9573338151
  C         7.7253247717        2.2505418742        8.9952548733
  H         6.7564075549        3.1772306587        7.4093809684
  H         6.2881237414        3.8182332168        8.8885398143
  C         8.9761188465        3.2061233938        9.0497359045
  H         8.0257223796        1.3666186150        8.4348496066
  H         7.5823260175        1.9148784867       10.0068897678
  C         8.6148203615        4.4996537763        9.6984199313
  C         9.3618423606        3.8386773243        7.7876991018
  C        10.0542651484        2.3273136704        9.8033695898
  C         8.7941890018        5.6046930482        8.8719730575
  C         8.1077246269        4.8344253935       10.9527159306
  C         9.2703493253        5.1823819927        7.6500889349
  C         9.8200053827        3.1266831645        6.6588835798
  H         9.6110999430        1.8152342415       10.6721992477
  H        10.5118673671        1.5975308098        9.1011236359
  C        11.2533497427        3.2702507450       10.0736475184
  S         8.4740977134        7.1044440444        9.6005100429
  C         7.9934746090        6.1989019269       11.0687537693
  H         8.0583982162        4.0911152423       11.7072365530
  C         9.6214876636        5.6726761464        6.4521752087
  H         9.9446903258        2.0254744444        6.7105655312
  C        10.1218411781        3.6785811757        5.4824748265
  H        10.9619645661        4.2327754615       10.4773731911
  H        11.8121046641        3.3882543422        9.1185728716
  C        12.1370284028        2.7579359178       11.2050312476
  C         7.4301984072        6.9108965606       12.2527701078
  C        10.0025361340        4.9882232557        5.3089047394
  H         9.3060036019        6.6648531917        6.2830329472
  C        10.4460253857        3.1933643277        4.2528705038
  H        12.9307694902        3.5043635195       11.3677694928
  H        12.6821119218        1.7966674093       11.0442965825
  C        11.4563433570        2.7346504733       12.6410955923
  C         7.5466966029        8.2625996584       12.6062092140
  C         6.8620044514        6.1109436215       13.3460423057
  C        10.3439903947        5.6047555584        4.0352570128
  C        10.5328955602        4.2036997654        3.3736885443
  S        10.6408356808        1.6208582960        3.5167957151
  H        11.1726877884        3.7046357462       12.8601991748
  H        10.5619011612        2.0808521462       12.5586446547
  C        12.3077887978        2.2010100583       13.7764464242
  N         8.0054492560        9.3554107547       11.8223751451
  C         7.2900506307        8.6862637898       13.9052391295
  C         6.6334372015        6.5219104052       14.6414221764
  H         6.8542193608        5.0265674515       13.1728801368
  C        11.7134108717        6.3834436089        4.2082146841
  C         9.1193791539        6.3500842028        3.4301477760
  C        10.8260523192        3.7844429100        2.0599880941
  C        10.9792452055        2.3919228921        2.0292704367
  H        13.3254478114        2.6268823537       13.7639419615
  H        12.3822256473        1.1154689006       13.8419557202
  C        11.9221944000        2.7473872400       15.1527550055
  S         7.8532672353       10.7618719708       12.5571792711
  N         7.4494852451       10.0850204790       13.9740357869
  C         6.8637753976        7.9438031062       15.0055995284
  H         6.3288621231        5.7574319418       15.3738260351
  H        11.4754925009        7.1013192530        4.9084951604
  H        11.9080090501        6.9802318694        3.2321983408
  C        12.9722440382        5.5947468316        4.6314132313
  H         8.8203830188        7.1015075078        4.1247382077
  H         9.4423585879        6.8900786661        2.5670910870
  C         7.8326710647        5.6222271838        3.0859731173
  H        10.8386650273        4.5562129106        1.2844530417
  C        11.3657349249        1.6267095143        0.7883308077
  H        11.6406720037        3.8256520179       15.2105710345
  H        11.0156204486        2.2409003762       15.5157782675
  C        13.0773820617        2.5804958198       16.1204498714
  C         6.7176815272        8.5567211201       16.2753092260
  H        12.7348715074        5.0486721191        5.5344613632
  H        13.2195687893        4.9584575969        3.7923856392
  C        14.1643582255        6.4964874194        4.8411925566
  H         7.4397205479        5.1612598160        3.9387570331
  H         7.8915225579        4.8738073299        2.2826869442
  C         6.7345810401        6.6132930265        2.7040871789
  C        11.3987702698        0.2215783947        0.6156109058
  C        11.5551717730        2.4049421778       -0.4757904786
  H        13.7760394927        3.4258993004       16.0766187697
  H        13.6458254258        1.6387373875       15.8246479743
  C        12.6008757440        2.6503272250       17.5907276141
  H         7.0674110856        9.5859401552       16.2660998558
  C         6.4153993030        8.1415017040       17.5448332377
  H        13.9285024713        7.4490175972        5.3239316278
  H        14.6007910509        6.7987187326        3.8604943897
  C        15.0629738655        5.7901569349        5.8916523137
  H         6.4174409902        7.3073055191        3.4601628929
  H         7.1175773006        7.2409855681        1.9503414922
  C         5.4692865193        5.8163158304        2.4238125150
  N        11.0479775219       -0.6303949882        1.6489323042
  C        11.7399090566       -0.4011151940       -0.5157401770
  C        11.9044593215        1.7643457891       -1.6996936652
  H        11.4981679808        3.4269734754       -0.5734905471
  H        12.3994885989        3.6585346931       17.8753877542
  H        13.3277160630        2.2300638306       18.2934307996
  H        11.7705591775        1.9791375350       17.8835587282
  S         6.1039456496        6.4819462203       17.9795319543
  C         6.4323897188        9.0749072786       18.6739563070
  H        14.5367192844        5.6091578251        6.8118034512
  H        15.3317141769        4.7360322234        5.4974890352
  C        16.3705156109        6.4636983997        6.0569874704
  H         5.1072946424        5.3495921282        3.3322390853
  H         5.7697625931        5.1058025672        1.6762776276
  C         4.4342584095        6.6064393621        1.7490595387
  S        11.3887016173       -2.1764977400        1.2097418688
  N        11.7444860476       -1.8231881130       -0.3262629283
  C        12.0196835266        0.2887754793       -1.7134636013
  H        12.0192459978        2.3290586653       -2.6503135661
  C         5.8130688383        7.0938040582       19.6561860687
  N         6.1394284592        8.4141842841       19.8408751877
  O         6.5412856553       10.2556260356       18.4701715746
  H        16.8190481744        6.4256450741        5.0456572347
  H        16.1815361167        7.4345336742        6.4197768436
  C        17.2612190319        5.6941749430        7.0514847560
  H         4.5462276238        6.5049995549        0.6866495989
  H         3.5231005984        6.0893583700        2.0224955842
  C         4.3387073095        8.0991109465        2.2290101680
  C        12.3415448218       -0.4794150098       -2.8933861120
  S         5.5300850652        6.0504487118       21.0698643610
  C         6.0991149554        9.0843317640       21.1533889475
  H        17.1341072251        5.9556093743        8.1229393620
  H        17.1283434406        4.6188550820        6.9309231511
  C        18.7315358363        5.9423592650        6.8538659356
  H         5.2468312733        8.5573154341        1.9319931129
  H         4.3532487431        8.2108357118        3.3046547290
  C         3.1816038458        8.9118422888        1.6682681111
  H        12.2108641475       -1.5551175415       -2.7841516272
  C        12.8372384741       -0.1532546774       -4.1045366185
  H         5.6073972749        8.4987740204       21.9251055686
  H         5.4713150224        9.9944078183       21.0169042184
  C         7.4778563480        9.5081567394       21.6247499159
  H        19.3751130809        5.7832429031        7.8185492880
  H        18.7786593549        6.9575430452        6.6062111074
  C        19.3367538814        5.1780836948        5.7302782769
  H         2.5232907694        8.0610392813        1.4520004641
  H         2.7959916704        9.5559855147        2.3942562778
  C         3.4007311038        9.4819888944        0.2436640095
  S        13.2087585242        1.4456366057       -4.5955983212
  C        12.9169086511       -1.2816422101       -5.1501624202
  H         8.1630555728        9.5746276559       20.7516947988
  H         7.8231244243        8.7176059919       22.2062893192
  H         7.6051303768       10.4267484833       22.1376529488
  H        20.4277368340        5.1669768791        5.9183990237
  H        19.0161411829        4.1211471955        5.6938955734
  H        18.9961554741        5.5345842296        4.7806259760
  H         3.6374675685       10.5182196954        0.2468846751
  H         4.3033224225        8.9580794095       -0.1675486781
  H         2.5070608831        9.2901569971       -0.3938795341
  C        13.6390027829        0.6376044584       -6.0923105754
  N        13.5052524637       -0.7143017175       -6.2284399421
  O        12.6706722187       -2.4713873544       -4.9521150403
  S        14.0514152848        1.5426527841       -7.5047962189
  C        13.7185468546       -1.3616028022       -7.4613256110
  H        13.4987863712       -2.4420325086       -7.3995172800
  H        14.7293705479       -1.1666642142       -7.9912041026
  C        12.5690675743       -1.0101249662       -8.4564006529
  H        12.7554224428       -0.1197565649       -8.9985794456
  H        11.7604335280       -0.6155897570       -7.8198360142
  H        12.0595867937       -1.7487329162       -8.9799939155
