352
 i =    54500, time =    27250.000, E =        99.9490038417
  H         9.1368985416        5.2176932956       31.5490548085
  C         9.9983274599        5.6335938773       32.1242748455
  H         9.5034304731        6.3792039386       32.7396656324
  C        10.9542957046        6.3589788150       31.2571638610
  C        10.7841127211        4.7329858577       33.0855452348
  C        11.3266513667        5.5608244234       29.9619651556
  H        10.3949650006        7.2136823004       30.9036111867
  H        11.7369345364        6.8222809661       31.8104116369
  H        11.8083758583        4.9632951355       33.1860366560
  H        10.5949988836        4.9977529056       34.1289923571
  H        10.6392170355        3.6411435080       32.9960460661
  C        10.1122984074        5.3713467851       28.9895378440
  H        11.7453004277        4.5798674593       30.2760205606
  H        12.0023175024        6.0114836054       29.3677619670
  C        10.6612958029        5.2390802046       27.5785460301
  H         9.6381874839        4.3983719870       29.2939108124
  H         9.3186609360        6.1645618616       29.1255098427
  C         9.7433359912        4.6132365789       26.5641797035
  H        11.5063125514        4.5875668789       27.6406294951
  H        10.9150201656        6.1854573784       27.0757120230
  C         8.5166291642        5.4745880158       26.1690227176
  H        10.2348247252        4.3582763982       25.6658729804
  H         9.3813363585        3.7483122437       27.1024546611
  C         7.2420035359        4.7610696468       25.5748620888
  H         8.2405361576        6.0671624376       27.0473941396
  H         8.9085253735        6.2138636673       25.5322247887
  C         6.9132623879        3.4264536846       26.2864719350
  C         7.5061053607        4.0424520024       24.2574739971
  C         5.9632940291        5.7905101414       25.6236609289
  C         7.0148454049        2.3045265739       25.4334094085
  C         6.4153992141        3.0235197830       27.5235213437
  C         7.4817058244        2.6825880035       24.1679226319
  C         8.0264768595        4.6470362546       23.1036735256
  H         6.4008867857        6.7115176416       25.2422385889
  H         5.8560983504        6.0652772275       26.6720890375
  C         4.7058820930        5.2084139043       24.9221323093
  S         6.6196871995        0.7558295145       26.2546168674
  C         6.2308584861        1.6497195260       27.6542573141
  H         6.1780810744        3.7386682046       28.2075750596
  C         7.8626740293        2.0639406444       23.0225253925
  H         8.1421155109        5.7132929614       23.1634032335
  C         8.3239602108        4.0628435682       21.9147895798
  H         4.9182788792        4.8347689472       23.8675441507
  H         4.3601263855        4.2532311338       25.3510773760
  C         3.4675037383        6.1254829963       24.8055065405
  C         5.7909132424        1.0273792103       28.9762963842
  C         8.2440215770        2.6789747797       21.8208778656
  H         7.7359665830        0.9676202146       22.9995534452
  C         8.6479545933        4.3800263466       20.5862205838
  H         2.8233564939        5.7677623181       24.0627528116
  H         3.7090160759        7.0321380538       24.3959182608
  C         2.7603845735        6.3601619017       26.1199496369
  C         5.7493003952       -0.3541005869       29.2666936012
  C         5.4046020717        1.8789610423       30.1457618579
  C         8.6676423427        1.9274768181       20.5587965759
  C         8.8328528528        3.2798398423       19.7925508508
  S         8.9382779033        5.8709844866       19.8548648006
  H         2.1594176080        7.2711261306       26.0307491347
  H         3.5787512153        6.7848683736       26.8266717659
  C         1.9484442955        5.1417467485       26.5483615400
  N         6.0733598296       -1.3893681424       28.3964035623
  C         5.4740206991       -0.8948075783       30.5274771288
  C         5.1104141721        1.3025052882       31.3964383571
  H         5.4128111466        2.9102293076       29.9951902068
  C         7.5508913674        1.0577469911       19.8191922738
  C         9.9782407004        1.0890981345       20.6485872247
  C         9.1212311975        3.6958030677       18.4255381885
  C         9.2253260316        5.0507573049       18.3544281396
  H         1.2350796599        4.8917057526       25.7746018994
  H         2.5845710298        4.2710986646       26.7048636617
  C         1.1359401116        5.4776123548       27.7876883124
  S         6.1983692777       -2.8388735860       29.1512317593
  N         5.7242233100       -2.2706063522       30.5978136830
  C         5.2237229959       -0.1249884880       31.6768510082
  H         4.9580008630        1.9503885291       32.2014352937
  H         7.3205535446        0.1482857063       20.3604784728
  H         7.9287606064        0.6828875939       18.8621655584
  C         6.2361413487        1.8607536230       19.6612761810
  H        10.2511833917        0.6792210059       19.7085955818
  H         9.8562573571        0.3053600195       21.3706675540
  C        11.2290510858        1.9043504230       20.9878900356
  H         9.3464394097        2.9247652135       17.6786258665
  C         9.5530010883        5.8515253010       17.1502532275
  H         0.3230326901        4.7951619826       27.9055518483
  H         0.8417076907        6.4883558211       27.7298703569
  C         1.9968093091        5.4363152144       29.0730540609
  C         5.0648250187       -0.7704401397       32.9339823782
  H         6.1755492717        2.8764776819       19.9204718403
  H         5.4643017635        1.4505700483       20.2881043064
  C         5.6450021285        1.6981324679       18.2588980197
  H        10.8575854327        2.5616177908       21.7768741843
  H        11.4508972131        2.5510619765       20.1537331324
  C        12.3224253970        1.0091495703       21.5196349868
  C         9.6930581733        7.2939273942       17.0225083201
  C         9.7071552004        5.0576790570       15.8915867717
  H         2.5183402182        4.4700324812       29.0843475976
  H         2.7133050820        6.2144549669       28.9681698174
  C         1.2127942907        5.6788564995       30.3438291125
  H         5.3226917684       -1.7950321554       32.9506364425
  C         4.6754442281       -0.2852928495       34.1870404522
  H         5.7318498406        0.6826665635       17.9312804799
  H         6.2949920267        2.1629089253       17.6176447421
  C         4.2494158481        2.3998989078       18.0769666050
  H        12.1121364520        0.5145591197       22.4510153951
  H        12.6525226902        0.2050403345       20.9515086105
  C        13.5999990328        1.8427404948       21.4758298149
  N         9.5483790165        8.2034661915       18.0491516378
  C        10.1866433303        7.8968062933       15.8772763381
  C        10.2392944045        5.7413927326       14.7607361593
  H         9.6082661248        3.9640168076       15.9114390642
  H         1.7834864806        5.8395281007       31.2374192166
  H         0.4209030776        6.4702927980       30.2306278870
  H         0.6800214503        4.7982892970       30.5309723552
  S         4.2299292807        1.2650451042       34.5535752949
  C         4.7861975467       -1.2313016079       35.2804322246
  H         4.0744673315        3.3182202243       18.6245965977
  H         4.0654749597        2.6381649305       17.0547416855
  C         3.1806227006        1.3777938655       18.4947556972
  H        13.4238568469        2.8571151593       21.8835881230
  H        14.0560714459        2.0909956709       20.5249850638
  C        14.7143403512        1.2670593339       22.4176645178
  S         9.7725060400        9.7409996340       17.5217881771
  N        10.1412021300        9.3090301673       15.9619200761
  C        10.5301706352        7.2050980256       14.7068513174
  H        10.2623159872        5.2619467879       13.7590005340
  C         4.0695353973        0.6766561200       36.1791498279
  N         4.3839639236       -0.6214728377       36.3948582341
  O         5.1927177435       -2.3859020110       35.2090591767
  H         2.2099947717        1.9171148617       18.4923854898
  H         3.4152470721        0.9139916145       19.4432610603
  C         2.9027110076        0.1062497031       17.5819298638
  H        14.5767580433        1.8408265223       23.3032933192
  H        14.6616511546        0.1972480454       22.6436524516
  C        16.0688337508        1.6145413785       21.8873557357
  C        10.6533503938        7.9647605456       13.4601367037
  S         3.7180317146        1.7152245896       37.5889174064
  C         4.4611986537       -1.2795603911       37.7230857806
  H         2.3886253194        0.4192218310       16.6264802339
  H         3.8720604102       -0.1923132049       17.3035977841
  C         2.0101659197       -0.9041028689       18.2490169954
  H        16.0108478278        2.6819414788       21.7755512450
  H        16.2287192293        1.2081313998       20.8793478524
  C        17.3060661032        1.2871273874       22.8036654512
  H        10.4708545747        8.9867849365       13.6292854753
  C        11.1559720237        7.5595534781       12.2172222876
  H         4.0093011789       -0.6303580312       38.4623709969
  H         3.9928249069       -2.2481091824       37.7174641125
  C         5.9321100146       -1.4913241016       38.2882818994
  H         1.0448075209       -0.4900951020       18.5788496204
  H         2.6247251425       -1.3102695482       18.9933419693
  C         1.5877788818       -1.9424603736       17.2288545672
  H        17.7132607539        0.3163234065       22.4738223415
  H        18.0619745660        2.0822407533       22.5580596660
  C        16.9376136929        1.2462471104       24.3278090006
  S        11.6216033482        6.0025734228       11.7561610507
  C        11.1703396122        8.5259579674       11.0924674687
  H         6.0485732354       -2.2699187996       39.0407242432
  H         6.6260073312       -1.7876293317       37.5207002342
  H         6.3602130495       -0.5708974096       38.8111879635
  H         1.1384003606       -2.7769855571       17.7194515159
  H         2.4256979622       -2.3721670106       16.6561292586
  H         0.8155523682       -1.5525743379       16.5711950528
  H        17.8816305492        1.1979280493       24.9041653322
  H        16.3649619465        0.3694748261       24.6415427332
  H        16.3836824228        2.1023508641       24.5714165713
  C        11.9147676314        6.6874989871       10.1422357552
  N        11.8558416023        8.0265447662       10.0392064139
  O        10.7705530377        9.6142534886       11.2881857488
  S        12.6842500614        5.7324559915        8.8131732223
  C        11.9826983279        8.9917799745        8.9189469466
  H        12.0607065912       10.0129314115        9.2224439308
  H        12.9416859054        8.8883001986        8.4387313134
  C        10.6783560601        8.8694535718        8.1330447511
  H        10.6861953769        7.8966181196        7.6822326442
  H         9.8630273880        8.9060946226        8.7535597830
  H        10.5929768635        9.5244751126        7.3231884413
  H         4.4719337084        1.2200686746       12.6099807593
  C         4.0257582609        2.2491904492       12.8652913483
  H         4.8264514723        2.9764805795       13.1293754965
  C         2.9754704643        2.6017644875       11.8243010734
  C         3.1932174665        2.0785348542       14.1526541726
  C         3.6017989456        2.7861316842       10.4261508525
  H         2.4630475057        3.5137325744       12.1662714075
  H         2.2879961338        1.8241621842       11.6499707909
  H         3.0002731889        3.1369034537       14.4135091360
  H         3.7747771030        1.4892643928       14.8680038435
  H         2.2874224134        1.5841602986       13.8979032002
  C         4.3540063608        1.5917511467        9.8345395406
  H         2.8488986375        3.0215218097        9.7120211869
  H         4.2760959173        3.6965030006       10.3570953636
  C         4.8937681059        1.9179816256        8.3976496537
  H         3.6052380699        0.8311269561        9.7457267755
  H         5.1263740429        1.2376869464       10.4715014546
  C         6.2237333653        2.6161811132        8.4158942516
  H         4.2733075197        2.6044073420        7.9004387977
  H         5.0667294754        1.0207497018        7.8620381520
  C         7.4321675045        1.8036639445        8.7762707432
  H         6.4553515773        3.1185386912        7.4334245927
  H         6.0761802530        3.4130800379        9.1132459487
  C         8.7521602198        2.5334549373        9.0826163973
  H         7.5242591259        0.9369111928        8.1354973946
  H         6.9910962476        1.4283544779        9.7187041608
  C         8.5645242616        3.8986544564        9.7990329020
  C         9.2831862153        3.2235323389        7.8234741321
  C         9.8327628190        1.6463168176        9.8487890900
  C         8.8863858927        5.0220729101        8.9987781349
  C         8.0087990915        4.2699433156       11.0321178960
  C         9.4202020568        4.5752201382        7.7776182929
  C         9.8108887225        2.5049322584        6.7167785884
  H         9.3157164903        1.2606318010       10.7195186039
  H        10.0833725524        0.8259736068        9.1800675401
  C        11.2624196983        2.3359797059        9.9768477985
  S         8.3826114443        6.4945626235        9.7349887538
  C         7.8928900667        5.6541078651       11.1285738187
  H         7.6095095312        3.4843568043       11.6609863678
  C         9.9336869529        5.1922925659        6.6703978481
  H         9.8244831678        1.3920248077        6.7614023806
  C        10.1612432033        3.1272952695        5.5634035555
  H        11.1835781619        3.3765372288       10.2433058797
  H        11.7765263890        2.3055691489        8.9621358236
  C        12.0820817480        1.6377659493       11.1043400987
  C         7.4182783328        6.3432151472       12.3489394681
  C        10.2082071369        4.4941006687        5.4568335476
  H         9.8167883703        6.2720587551        6.5161478444
  C        10.6129300387        2.7338284267        4.3221701890
  H        12.9749922632        2.1956759118       11.1716614257
  H        12.2748898898        0.5973021988       10.7451735517
  C        11.4664187059        1.6082201140       12.5645376410
  C         7.3592702054        7.7536688397       12.5610983564
  C         6.9249889767        5.5110982990       13.4558197950
  C        10.7030334288        5.1549737908        4.1867867919
  C        10.9388336774        3.8145997550        3.4788355494
  S        10.9301449341        1.2596910154        3.5876397985
  H        11.1153262115        2.5890354700       12.8703365097
  H        10.6023010483        0.9751395090       12.6263209398
  C        12.4388928821        1.0815046837       13.6215078998
  N         7.8232931646        8.7024899043       11.7085411187
  C         6.9632661566        8.2616466203       13.7812050039
  C         6.4697563067        6.0809030113       14.6601071030
  H         6.8662623587        4.4785917123       13.3415467665
  C        11.9886972636        5.9165923940        4.3747891254
  C         9.6138137172        5.9459663351        3.5148777619
  C        11.3848064861        3.4283531523        2.1968406381
  C        11.3796374170        2.0170860142        2.1190053206
  H        13.3578037008        1.7133426690       13.6357062355
  H        12.7738481439        0.1418182596       13.3894391918
  C        11.8253436450        1.0858355799       14.9807445325
  S         7.6539234529       10.1704269876       12.4250978779
  N         7.0241941800        9.6943036307       13.8110020424
  C         6.5518211011        7.5106425026       14.9061814807
  H         6.0287533029        5.3888357493       15.3714307057
  H        11.8100092340        6.5077043749        5.3369486808
  H        12.2815495286        6.6387763875        3.5186294955
  C        13.2810785366        5.1894162091        4.7591666482
  H         9.4123756016        6.7382590225        4.2578531055
  H         9.9506544973        6.4250133309        2.6124805964
  C         8.3614831745        5.1503716096        3.1925101240
  H        11.5782276826        4.1758861830        1.4317297684
  C        11.8389581398        1.2290996191        0.9136398790
  H        11.0639471094        1.9268538650       15.1735263484
  H        11.2499645274        0.1510260082       15.0605682850
  C        13.0392128403        1.3299334859       15.9266105520
  C         6.3398017964        8.1588663184       16.1516606044
  H        13.0704935733        4.4402902601        5.5254308600
  H        13.4583237277        4.4803911015        3.9289979759
  C        14.5172195446        6.0775413139        5.0957315387
  H         7.8785302873        4.7126971895        4.0725588262
  H         8.5472979643        4.3674906577        2.4400142277
  C         7.3779163412        6.0953376005        2.5019070086
  C        11.9458938508       -0.1711002662        0.6902586564
  C        12.2057391279        2.0074410795       -0.3038280566
  H        13.5970648928        2.2142022736       15.5068749123
  H        13.6722168118        0.4266826184       15.8809812325
  C        12.6582381699        1.5595458023       17.3291336125
  H         6.3929713435        9.1838724942       16.0773389307
  C         6.2908651497        7.6451641845       17.4040735767
  H        14.3193822433        6.6197426542        5.9904242197
  H        14.7678251874        6.8053428441        4.3262613845
  C        15.6913884664        5.1621042631        5.2983414677
  H         6.9638251922        6.8295837633        3.2244846902
  H         7.9705173439        6.4778367396        1.6587636187
  C         6.1462568108        5.3441133743        2.0873818938
  N        11.5633706626       -1.1545101474        1.6354154311
  C        12.3720204072       -0.7497571843       -0.4614504926
  C        12.5181857436        1.4502235617       -1.5425667485
  H        12.0568018786        3.1367070113       -0.2472891808
  H        12.1344139267        2.5511737800       17.3197649324
  H        13.5825231180        1.4483456384       17.9500107283
  H        11.9315450131        0.8198880268       17.7277060655
  S         5.9099191142        6.0489594247       17.8727972559
  C         6.3089989178        8.6424467012       18.5183917728
  H        15.4529426129        4.2978569544        4.6578896710
  H        16.5866884817        5.6538386006        4.9686469947
  C        15.8099292930        4.7728187271        6.7585470772
  H         5.5162330409        5.1196849149        2.9718223727
  H         6.3921506226        4.3015843357        1.7905947038
  C         5.4530172606        6.0717348642        0.8962534139
  S        11.7671340718       -2.5845747828        1.0149555271
  N        12.3882683163       -2.1434212131       -0.3676352516
  C        12.7604202673       -0.0637169767       -1.6185269087
  H        12.7549347239        2.1684530554       -2.2969442280
  C         5.9636856506        6.6641755466       19.5556403309
  N         6.0124517637        8.0115695491       19.6347885417
  O         6.6593004661        9.8189907814       18.3331396240
  H        15.7258294422        5.6332317073        7.4088385555
  H        15.0824831078        4.0499636052        6.9800563455
  C        17.1675857572        4.2006476552        7.0638373431
  H         6.0179068651        6.3455056304        0.0308802677
  H         4.7144330564        5.3225494382        0.5869715792
  C         4.4299029007        7.1762902012        1.1434333564
  C        13.0615269779       -0.7784387397       -2.8575141370
  S         5.6507948022        5.7604259905       20.9836567155
  C         6.0631838897        8.6786975155       20.9522720103
  H        16.9548332513        3.5023817360        7.8787959425
  H        17.5457891992        3.5540045968        6.2428307017
  C        18.1971183599        5.3093318500        7.4758230932
  H         3.9126632657        6.9215832734        2.0508869598
  H         3.6462027968        7.0062042669        0.3296218544
  C         5.1367621687        8.5267494124        1.2139302465
  H        12.9139965675       -1.7975077893       -2.8034156642
  C        13.4980185434       -0.3341380967       -4.0557105257
  H         5.3137194469        8.1480873961       21.5498630785
  H         5.6596307260        9.7035327267       21.0160236380
  C         7.4124076540        8.7120494262       21.4513354759
  H        18.8019518635        4.9601719725        8.3327470479
  H        17.6830613136        6.1130275154        7.9081072147
  C        19.1061113805        5.8137281630        6.3698165653
  H         5.5920325366        8.6266924677        2.1954059392
  H         5.8914175613        8.4608524729        0.4886361610
  C         4.3033254833        9.7709932015        0.8300659316
  S        13.7393870150        1.3573455780       -4.5771590149
  C        13.6582971122       -1.3661080924       -5.1110756422
  H         8.1041459128        9.0014258979       20.6244052494
  H         7.5724563476        7.7167355230       21.8280875395
  H         7.5120443425        9.3672446469       22.3004761083
  H        18.7031368831        6.7035412241        5.9988039945
  H        20.0987457544        6.0318463977        6.8118508055
  H        19.1310940596        5.1456015138        5.5427371063
  H         3.2412598376        9.7058929878        1.0116121305
  H         4.6032264939       10.6523667189        1.3816157747
  H         4.4377658959       10.0591017250       -0.2382499357
  C        14.0871445575        0.6612369594       -6.1428846412
  N        14.0536494120       -0.7232515683       -6.2334290090
  O        13.3602786434       -2.5278619972       -5.0339669502
  S        14.9713962930        1.5452197627       -7.3539757753
  C        14.2804644550       -1.4512134421       -7.4992450915
  H        14.6625778100       -2.4423713288       -7.3502839550
  H        15.0405733689       -0.9377200381       -8.0829936473
  C        12.9904486734       -1.6126948238       -8.2765436821
  H        12.3948980592       -0.6644195464       -8.1225886227
  H        12.3916363636       -2.4900191675       -8.0452261311
  H        13.1147584147       -1.5259463745       -9.3344012314
