352
 i =   120000, time =    60000.000, E =        99.6442735393
  H         9.8554841222        6.2178355000       31.4192937399
  C        10.8463278188        6.1441619145       31.8995197176
  H        11.1764313115        7.1798182678       32.1959955905
  C        11.6441265391        5.5349089830       30.7596916941
  C        10.7566639538        5.2059148326       33.0725831873
  C        10.8104323378        5.4584250600       29.4675019945
  H        12.5542602202        6.2052233895       30.6695898962
  H        12.0119890588        4.5944301512       31.1999336853
  H        10.4210865456        4.2384884166       32.7431651183
  H        11.7736131137        5.1208356722       33.4994474336
  H        10.1896817073        5.6034981114       33.8626757021
  C        11.5583443911        5.0460831892       28.2185085527
  H        10.3951440487        6.4381997859       29.1800004301
  H         9.9849143282        4.7551384709       29.6865634576
  C        10.8599055958        5.6150667619       26.9398446093
  H        12.5935178558        5.5284167312       28.2978389490
  H        11.7706473705        3.9724212858       28.0619543075
  C         9.5810612617        4.9468386311       26.5714791286
  H        11.4713787190        5.4460631686       26.1292047097
  H        10.7265296807        6.6861968493       26.9387864745
  C         8.3236716003        5.8624438505       26.4651141494
  H         9.7652382307        4.3476147099       25.6928263488
  H         9.3998396278        4.2970177632       27.4540605004
  C         7.1278352674        5.1406489970       25.7675626171
  H         8.0714686871        6.1730308147       27.4326876593
  H         8.5975258584        6.7030268700       25.8453497749
  C         6.7493574360        3.8004707407       26.4371878821
  C         7.5129829693        4.5165020812       24.5078784535
  C         5.8796565516        6.0140240211       25.7406137456
  C         7.0156631939        2.6794393543       25.6096310670
  C         6.1926426765        3.3830956815       27.6276291940
  C         7.5321302232        3.1336929008       24.4395310620
  C         7.9666348338        5.0356386081       23.2897864054
  H         6.0666214498        6.9213767759       25.1176280030
  H         5.6715331644        6.3521654232       26.7675547993
  C         4.6163284467        5.4285890485       25.1115058228
  S         6.7030732903        1.2128592368       26.3679733056
  C         6.1276801782        2.0402953101       27.7386063252
  H         5.8968035773        4.1386461333       28.3567488626
  C         7.9713447339        2.4986273776       23.2911500761
  H         8.1773279055        6.1097079454       23.3646584230
  C         8.2095797911        4.4148307266       22.1106917456
  H         4.8544089567        5.3083698819       24.0166974610
  H         4.4375619330        4.3662330626       25.3935507007
  C         3.3675600903        6.2871589623       25.2709300312
  C         5.6183187897        1.3900444387       28.9806219507
  C         8.2737762077        3.0641045529       22.1372228509
  H         7.9247224846        1.4485074854       23.4531552162
  C         8.6260868292        4.7607341008       20.8826675273
  H         2.7525722138        5.9086861274       24.5128143098
  H         3.6240650130        7.2412088068       24.9062326259
  C         2.7450925808        6.2826341732       26.6031600437
  C         5.5779092925        0.0033182735       29.2001244101
  C         5.2342299975        2.2253721838       30.1713024590
  C         8.6931850178        2.3428451174       20.8639363578
  C         8.9596015821        3.6830362235       20.1213328474
  S         8.8749003126        6.2707251659       20.1164920060
  H         1.8811204420        6.9399721163       26.6548004048
  H         3.4760993841        6.6634292951       27.2298324966
  C         2.2471670627        4.8974959581       27.0359523391
  N         6.0601191545       -0.9977482190       28.3369198498
  C         5.2649217307       -0.5218782592       30.4409128844
  C         4.7883945174        1.6500437893       31.3468380729
  H         5.2671482944        3.2679927042       30.0809679099
  C         7.5632624914        1.4969076200       20.2525276231
  C         9.8601871731        1.4462447527       21.1540042715
  C         9.3198516518        4.0289454108       18.7834796758
  C         9.2595817254        5.3694122626       18.6078698901
  H         1.9132278296        4.2692940330       26.2152813644
  H         3.0779863294        4.2833995511       27.3307076609
  C         1.1615021142        4.9221453145       28.0908438545
  S         6.0205483690       -2.4398767477       29.1113449431
  N         5.5091399022       -1.9138397303       30.5003869444
  C         4.8373354068        0.2209455305       31.5590051928
  H         4.5271478794        2.2234204978       32.1178578726
  H         7.3928419574        0.5806644244       20.8019785240
  H         7.9960554148        1.1557639632       19.3078007064
  C         6.2868147869        2.3727122818       20.0611393238
  H        10.2355104022        1.2145618622       20.1964421151
  H         9.4916855656        0.4692098601       21.6187459819
  C        11.0553882343        2.0001971199       21.8462245442
  H         9.5325081874        3.2765807422       18.0698990961
  C         9.6507038643        6.0878304781       17.3499110083
  H         0.7742068188        3.9317666182       28.3353985368
  H         0.3622424464        5.5542089285       27.7348429933
  C         1.6774469736        5.5423374456       29.3984623924
  C         4.5100605480       -0.4912427914       32.7748671034
  H         6.4698964122        3.2588277257       19.4108157069
  H         5.9751353589        2.7332639080       21.0719258865
  C         5.2516525384        1.5511148065       19.3825372452
  H        10.7683222137        2.3290506356       22.8114333698
  H        11.2912750906        2.9448923806       21.4312680773
  C        12.2645660880        1.0459286150       21.8622502375
  C         9.7641616291        7.5035438188       17.1795968518
  C         9.9623648618        5.2611181857       16.2012910421
  H         1.9235989095        6.5815571233       29.1783235696
  H         0.8517924159        5.4853370690       30.1546683129
  C         2.9713995145        4.8995457408       29.9261082663
  H         4.4757160508       -1.5166278796       32.6321444734
  C         4.3626133857       -0.1555966068       34.0792171434
  H         4.8070536244        0.8532295847       20.0937388097
  H         5.8388313467        0.8770637475       18.7425664992
  C         4.1964953060        2.1963988467       18.4436148730
  H        12.1126020364        0.1884044149       22.6154471592
  H        12.4000845767        0.5891311996       20.8637503965
  C        13.4331735725        1.9697836765       22.3229191016
  N         9.5361090537        8.4174370848       18.1844332845
  C        10.0005182134        8.0890960075       15.9481692242
  C        10.3416379805        5.8042013758       14.9733519390
  H         9.9378574475        4.2489059316       16.2302139494
  H         3.2333619111        5.3420185216       30.8916344471
  H         2.8674901943        3.8399505220       30.0848561103
  H         3.7810929084        5.1662206797       29.2571435236
  S         4.2315506033        1.4783152872       34.6971920319
  C         4.3560564315       -1.2060089624       35.1004079589
  H         4.0833099735        3.2851810663       18.6644987913
  H         4.4802444564        2.0167163852       17.3605160673
  C         2.7532315958        1.6270027496       18.5283680386
  H        13.2380401672        2.6258230036       23.2359456143
  H        13.6400043354        2.6446559475       21.5249696368
  C        14.7315292127        1.2331138017       22.6542816052
  S         9.7083652746        9.9414877419       17.5854017620
  N        10.0354478716        9.4622306734       16.0411195462
  C        10.3572670509        7.3002639105       14.8058540115
  H        10.5780220495        5.1361005613       14.1442093600
  C         4.0215271824        0.6942957441       36.2609657293
  N         4.1317509432       -0.6348644767       36.2934714463
  O         4.3769874689       -2.3973577154       34.8598399130
  H         2.0129907310        2.3179740005       18.1768531363
  H         2.5515759155        1.3823148088       19.5386393854
  C         2.5620520734        0.3600273500       17.7772177760
  H        14.7274521271        1.1115665665       23.7236778204
  H        14.7581435813        0.1933186167       22.3110096274
  C        15.9215944302        2.0777260660       22.2609550345
  C        10.5470805304        7.9838888802       13.6206543195
  S         3.6952145571        1.5538274617       37.8025836357
  C         4.3104613353       -1.5051890727       37.5181346835
  H         2.1579373351        0.6494305857       16.7728053830
  H         3.5636768423       -0.2130084017       17.6758200763
  C         1.4515611805       -0.5410802067       18.3693198048
  H        15.9113019439        3.0530271226       22.6930515264
  H        15.9467841542        2.3730916340       21.2591943235
  C        17.2753313043        1.5994554609       22.5953397717
  H        10.3109287732        9.0457303799       13.7091559382
  C        11.1149082966        7.5942699493       12.4687659810
  H         3.8089358426       -1.0945769363       38.3604146026
  H         3.8897346290       -2.4728172485       37.2440252528
  C         5.7988375674       -1.6561891811       37.8836203176
  H         0.4043032498       -0.0636338605       18.4764552266
  H         1.8019825008       -0.6553381380       19.3872371185
  C         1.3897971932       -1.9053566952       17.7254715325
  H        17.4649079937        0.6165312746       22.1639704291
  H        17.9685565828        2.2597153971       22.1433955688
  C        17.4316984612        1.4247973629       24.0995770909
  S        11.6330110914        6.0635498542       11.9996774982
  C        11.1823798672        8.6664740378       11.4040491069
  H         6.3983157880       -1.3715302744       36.9730779158
  H         6.1320088645       -1.0876606937       38.7007721629
  H         6.0982511494       -2.6640751602       38.1189723475
  H         0.5633345342       -2.5027482776       18.1351856955
  H         2.3052570292       -2.4439601182       17.9052672674
  H         1.0685251153       -1.8568233180       16.6421630955
  H        16.8825703517        0.4795062450       24.3733226934
  H        16.7909675763        2.1070431059       24.6575341407
  H        18.4806696118        1.4334016735       24.3812583996
  C        12.0348492348        6.7852842782       10.4621451991
  N        11.8061478594        8.0871485981       10.3456877165
  O        10.8505931089        9.8608082874       11.6156408566
  S        12.5426242875        5.8683521975        9.0555329853
  C        12.0483314904        8.9202686108        9.2007015195
  H        12.4014242813        9.8977758045        9.4406323478
  H        12.9289244521        8.5817067461        8.5984932988
  C        10.8294092827        9.1894827002        8.3083167085
  H        11.1594418955        9.9970343311        7.6200364497
  H        10.5417195184        8.3565845785        7.6563576683
  H         9.9290704984        9.4191280119        8.8495095601
  H         2.4788370832        3.3525125552       12.4784129678
  C         2.6978251691        2.2396118648       12.2968210549
  H         2.0568354688        1.7038390732       13.0024431620
  C         2.5120695797        1.7088326275       10.9073535223
  C         4.1577319583        1.9971858659       12.7768359938
  C         3.5596668065        2.1376494618        9.8370643403
  H         1.5123387417        2.0536255095       10.5086381933
  H         2.3520661801        0.6281249809       10.7379390776
  H         4.6262340441        1.1283560975       12.2194568850
  H         4.0963384443        1.7740967834       13.8584384159
  H         4.7281823301        2.8924529211       12.7134065936
  C         4.4991649051        1.0372937368        9.3719394584
  H         3.0241434222        2.5212375402        8.9459019350
  H         4.1844990616        2.9600065575       10.2179120341
  C         5.4504906265        1.3920300486        8.1736001365
  H         3.8468518220        0.2648757876        9.0074961863
  H         5.0858215778        0.4607890948       10.1516816031
  C         6.5904303390        2.2931464542        8.5622647583
  H         4.9312864624        1.7611990285        7.3185312174
  H         6.0057284175        0.5348381661        7.8086583022
  C         7.7512591660        1.5625725803        9.1145029064
  H         6.8910733072        2.7268290216        7.6209533705
  H         6.3028693548        3.1602682932        9.1677764884
  C         8.9843120528        2.4839587747        9.4677812946
  H         8.0253236312        0.8040414267        8.4063279823
  H         7.4078363880        1.0949293539       10.0201917518
  C         8.5872523606        3.8031742506       10.2231524945
  C         9.3008100356        3.2189432903        8.2407554544
  C        10.0771902869        1.7050926957       10.2605743504
  C         8.8565545894        4.9017686599        9.4521171882
  C         8.0673797592        4.1764226318       11.5073633381
  C         9.1609120970        4.5709794217        8.1838149906
  C         9.8067724608        2.6589571504        7.0904923959
  H         9.5882199482        1.0931210530       10.9835990863
  H        10.6221021050        1.0319454395        9.6325924952
  C        11.1808163077        2.6489675533       10.9406955708
  S         8.5554526416        6.3609097139       10.2946852476
  C         7.9578239084        5.5335755852       11.6847489426
  H         7.8396514384        3.4583023682       12.2262976260
  C         9.6030660040        5.2545758847        7.0951123817
  H         9.8207494344        1.5949631772        7.0764521658
  C        10.1721555566        3.3146654040        5.9681924800
  H        10.7492568771        3.5503028099       11.2006995057
  H        11.7548579792        2.9757416478       10.0552330973
  C        12.1729249234        1.8327252366       11.9530402033
  C         7.5277775389        6.2534890472       12.9583368737
  C        10.0683265231        4.6504041859        5.9283451604
  H         9.6190261572        6.3151407468        7.1915835927
  C        10.5928530295        2.9527210308        4.6634492465
  H        13.1071525031        2.2829583869       11.9254402077
  H        12.6094618160        0.8722230519       11.5718424710
  C        11.5782611043        1.7146590515       13.3184990630
  C         7.4062403581        7.6678773279       13.0402550396
  C         6.9684602086        5.5683087038       14.0827958751
  C        10.4319621486        5.3941160433        4.6537639257
  C        10.7701052598        4.0890094450        3.9088379956
  S        10.9026669760        1.5307362380        3.8053204778
  H        10.8140992730        2.4753838265       13.5187065209
  H        11.0946741378        0.7650818474       13.4050727607
  C        12.6578585295        1.7968906139       14.3923708076
  N         7.6523656114        8.4979992448       12.0302728179
  C         7.0233578194        8.3056020537       14.1840297593
  C         6.6355872483        6.1646015223       15.2512346624
  H         6.8381488934        4.5216912522       14.0803485639
  C        11.6980814987        6.2191896062        4.9612788207
  C         9.3495939494        6.2123964278        3.9048496344
  C        11.2958888627        3.8024773891        2.6353352360
  C        11.4243693830        2.4614389026        2.4365215116
  H        13.3359763697        2.6207362116       14.2265801995
  H        13.2863014084        0.9415695301       14.4458919199
  C        12.1112421093        2.1019740608       15.7818973147
  S         7.4773423652       10.0428632255       12.5962137214
  N         7.1114784910        9.6507716676       14.1412882169
  C         6.6812963472        7.5851049394       15.3641001014
  H         6.2606994077        5.4929564068       16.0072218442
  H        11.5999365536        7.0567432896        5.5995998474
  H        11.9709789076        6.6997169587        4.0557808955
  C        13.0184350791        5.3656663164        5.1418196131
  H         9.2116541670        7.1512246784        4.4259381351
  H         9.8169821790        6.5660060014        2.9638711176
  C         8.1031156648        5.3641953555        3.5274906700
  H        11.4204782949        4.6164674433        1.9494115568
  C        11.8615661802        1.8004107158        1.1734411777
  H        11.9362451262        3.1848540359       15.7465217747
  H        11.1635380868        1.5265550676       16.0308900080
  C        13.1600064004        1.8378401950       16.8008101381
  C         6.3555147218        8.3072222304       16.5507538513
  H        12.9355629854        4.6146060917        5.9404845810
  H        13.1890793810        4.8295032069        4.2314014546
  C        14.2546546776        6.2925454481        5.3132355814
  H         7.6874055236        4.8447053739        4.4302354199
  H         8.2610283915        4.4905539578        2.9192284157
  C         6.9407817436        6.2880735030        3.0653942789
  C        11.8673443668        0.3916314030        0.9901557104
  C        12.0499985069        2.6847301717       -0.0015298558
  H        14.1937113131        2.0667123313       16.6226763763
  H        13.2526262114        0.7822343126       16.8117135487
  C        12.6473608290        2.4424929172       18.0545115189
  H         6.3821626970        9.3506469549       16.3699480397
  C         6.1881991426        7.9860465127       17.8739026817
  H        14.0330998914        6.9796100204        6.1245671623
  H        14.5020004630        6.9225595988        4.4872649265
  C        15.4210687472        5.4719210243        5.6303787221
  H         6.0444331192        5.9061804346        3.5115130544
  H         6.9188219453        7.3257339392        3.3417498761
  C         6.7841213465        6.1119833815        1.5442618005
  N        11.6594553742       -0.5723978576        2.0165770499
  C        12.1083233126       -0.1658202367       -0.1838062434
  C        12.3157182915        2.0510200623       -1.1881430700
  H        12.2764026553        3.7371357197        0.0568338009
  H        13.4982022436        2.9444195460       18.4980269554
  H        12.0528586878        1.6469865773       18.6303787873
  H        11.9253971242        3.2450587489       17.7357852701
  S         5.8923257036        6.4208001230       18.4693967638
  C         6.1323189272        9.0929393235       18.8848220332
  H        15.0943336194        4.7392758453        6.3900320739
  H        15.7854545306        4.8460988807        4.7664060708
  C        16.5918918637        6.1914368642        6.2913494770
  H         7.3525911949        5.1837380000        1.2097248173
  H         7.1964788879        7.0195265688        1.1094067039
  C         5.2965449003        6.0400294769        1.1291149128
  S        11.5564386699       -2.0373629809        1.2937345584
  N        12.0168968864       -1.5692071533       -0.1842587916
  C        12.4097659557        0.5640258670       -1.3162507913
  H        12.4884498644        2.6727890824       -2.0650381336
  C         5.6719989078        7.2589519578       20.0509561830
  N         5.7538497612        8.5802635320       20.0690600539
  O         6.3639711667       10.2875282357       18.6157703744
  H        17.2020158253        6.6547249170        5.4576223676
  H        16.2505072332        6.9503267602        6.9765530291
  C        17.3625794408        5.2561669766        7.1620243363
  H         5.2485285723        5.9325956583        0.0407393565
  H         4.7319901522        5.1657143436        1.5199628520
  C         4.4821444296        7.3156920470        1.4604982452
  C        12.7922341881       -0.0830240036       -2.5214383100
  S         5.3622218058        6.5065860407       21.5918700038
  C         5.5943065990        9.5194468037       21.2108588973
  H        16.6802228203        4.9578869886        7.9912575371
  H        17.6530805831        4.4680416191        6.4996622277
  C        18.5497429332        5.9512165709        7.7863639068
  H         5.0275907618        7.9115606980        2.1460472055
  H         3.4993957384        7.0082026954        1.8759957330
  C         4.2760443176        8.1754750637        0.2137973548
  H        12.4681504763       -1.0817387847       -2.6352673974
  C        13.3568045132        0.2376283675       -3.7564530181
  H         5.0385773150        9.0532635563       22.0522153935
  H         4.9370300061       10.3697864602       20.8767071663
  C         7.0172174624        9.9706291962       21.6263883446
  H        18.9113294913        5.3751058405        8.6152007429
  H        18.2806034431        6.8830893715        8.2242078736
  C        19.7889853006        6.0545842577        6.9956759030
  H         5.1332192500        8.0750474311       -0.3829574361
  H         3.4098193653        7.6957224361       -0.3487214277
  C         3.8752614747        9.5144797519        0.7547277451
  S        14.0705099176        1.7486204234       -4.1257646466
  C        13.4156846526       -0.7844624425       -4.8550096054
  H         7.6302101288       10.5554059004       20.8989328157
  H         7.5511764963        9.0394529198       21.9435801400
  H         6.8346132909       10.5302999391       22.4639019069
  H        19.5825358493        6.6627890122        6.0427809518
  H        20.6190635508        6.4463965709        7.5951770830
  H        20.1027584727        5.0679036174        6.7081169978
  H         4.6516477795       10.2015129713        0.6849061119
  H         3.1039384693        9.9504835784        0.0668059791
  H         3.3480282426        9.4616201138        1.7212122273
  C        14.4078327096        1.0885972408       -5.7454353240
  N        14.1212586512       -0.2413409313       -5.9086053329
  O        12.9000636013       -1.8994917070       -4.8786478563
  S        15.1541307106        1.9671757734       -7.0570072915
  C        14.2643374229       -0.9663223427       -7.1159056454
  H        14.4946005639       -2.0306897499       -6.8783328646
  H        15.1158221417       -0.6645394661       -7.7984039060
  C        13.0034616943       -0.8670841412       -7.9056144440
  H        12.3374690214       -1.7038102124       -7.6450196678
  H        13.3506669212       -0.9150533673       -8.9527806878
  H        12.4270706141        0.0868856526       -7.8778264441
