352
 i =    26000, time =    13000.000, E =        98.2366847058
  H        10.1767639798        4.8510954472       31.4696799207
  C        10.5791417187        5.7112497975       31.9955542378
  H         9.5621936859        6.0046996773       32.3939701948
  C        11.1620171803        6.7039146105       30.9639417168
  C        11.4622908115        5.3730218043       33.1507637147
  C        11.4163413066        6.0603279439       29.6298525530
  H        10.5707991767        7.6722647471       30.8020544670
  H        12.0649194314        7.0826497207       31.4562443422
  H        10.9169180038        4.7112121480       33.8306667127
  H        12.2066127798        4.9287114351       32.6400955890
  H        11.7164586715        6.1010582159       33.8869314385
  C        10.2362353462        6.0206465813       28.7363056143
  H        11.7650386535        5.0330727819       29.7739764574
  H        12.2249627098        6.5519088962       29.0666520942
  C        10.7290591056        5.9519871860       27.3306062502
  H         9.6815082244        5.1258223576       29.0712448650
  H         9.5587084347        6.8510199669       28.8433609142
  C         9.7235005364        5.1359412745       26.4086450665
  H        11.7017192886        5.4523000299       27.2092029079
  H        10.7961519524        6.9086561961       26.9151654528
  C         8.5196823936        5.9923288127       26.0354141689
  H        10.2572384167        4.6004167310       25.5530813762
  H         9.3699550942        4.2764226718       26.9582261815
  C         7.4149416715        5.1598431560       25.3556748387
  H         8.1489320254        6.4061917727       26.9091717422
  H         8.8652374493        6.9181144128       25.5346217786
  C         7.0624655696        3.8242164643       25.9866234285
  C         7.7875382745        4.4199220480       24.0469897254
  C         6.1495148888        6.0609848297       25.2163340165
  C         7.2135665673        2.7041298768       25.1604955362
  C         6.4870189265        3.3870959854       27.2687777296
  C         7.7181017037        3.0724572136       23.9487691751
  C         8.2189043631        5.0656117408       22.8999019549
  H         6.4052440113        6.9131793347       24.6300638114
  H         6.0246654251        6.6057006765       26.1093587732
  C         4.8553635668        5.3065169614       24.7564049810
  S         6.7503681565        1.2420173679       25.8918098699
  C         6.3152151542        2.0132846458       27.3260991311
  H         6.0690079423        4.2144344422       27.9436574137
  C         8.1353792194        2.4475938318       22.8441325744
  H         8.2371936992        6.1365206535       22.9440867749
  C         8.6211820355        4.4444564697       21.7620449140
  H         5.0218569525        5.0816914472       23.6861493582
  H         4.8322541450        4.3434710513       25.2450182769
  C         3.5631142649        6.1076331939       24.7371096780
  C         5.8544231616        1.3462796418       28.6023378688
  C         8.5902246722        3.0640190736       21.6162478564
  H         8.0599364632        1.3516355105       22.8097562895
  C         9.1374236317        4.8231744213       20.5435720157
  H         2.7764915569        5.5293399144       24.0671095404
  H         3.6833464557        6.9401843005       24.0947758923
  C         2.9929340463        6.3942157170       26.1116738132
  C         5.9412798442       -0.0101591540       28.9053275427
  C         5.2929543946        2.2506873805       29.7108249325
  C         9.0609901673        2.3667020230       20.3769552008
  C         9.4065820383        3.7102270315       19.7243518367
  S         9.4743690418        6.3282619705       19.8316851430
  H         2.2771818903        7.1138183450       25.8311480321
  H         3.6725099881        6.9610976158       26.7459549437
  C         2.3778001800        5.1030492907       26.7030716818
  N         6.1515371547       -1.0185207245       27.9775645075
  C         5.7136314462       -0.4968387674       30.2390366190
  C         5.0556437840        1.7447672870       31.0062098227
  H         5.0080598037        3.2151287564       29.5091522987
  C         7.9500598942        1.6203631833       19.6541582020
  C        10.3163497787        1.5024810550       20.6720525869
  C         9.8060133143        4.2219123368       18.4580763126
  C         9.8397998898        5.5727173836       18.3471704348
  H         1.6947611618        4.7848361239       25.9883113321
  H         3.1263288468        4.4142179415       26.8054505315
  C         1.6247889198        5.3096606230       28.0398461261
  S         6.2797883701       -2.4495384963       28.7591585247
  N         5.9227429104       -1.8672903446       30.2310046063
  C         5.2065919668        0.3181086170       31.2840218870
  H         4.5858480382        2.3613263837       31.7236276178
  H         7.7829889544        0.7001511688       20.2771629657
  H         8.4079465633        1.2886518189       18.6878863187
  C         6.8041627309        2.4774387599       19.1986230335
  H        10.3380557477        0.7310964508       19.8929798017
  H        10.1597255084        1.0637307858       21.6363368082
  C        11.6156035158        2.3897734362       20.7349584286
  H         9.8573576174        3.4780565429       17.7176037065
  C        10.1018893314        6.2827313458       17.0423909050
  H         1.0806959936        4.3896030636       28.3803405319
  H         0.8950945415        6.1434323833       27.8965609291
  C         2.5437520615        5.5864825975       29.2925164758
  C         5.1850873776       -0.3273165873       32.5722782574
  H         7.1668561263        2.9788247057       18.3222255234
  H         6.5171866576        3.1859306506       19.9160525587
  C         5.6089190980        1.5830214781       18.9297393390
  H        11.5590344858        3.2602926477       21.4410131694
  H        11.9006280596        2.9033760279       19.8416546891
  C        12.8010537546        1.5481621656       21.1452566101
  C        10.0686912980        7.6848644453       16.8606343900
  C        10.3360419926        5.4567314918       15.8194469520
  H         3.3465274784        4.9020884560       29.3516172505
  H         3.0573759455        6.5677303689       29.2624689813
  C         1.7899939800        5.4517984040       30.6168636517
  H         5.0673999356       -1.3543301895       32.4836200755
  C         4.8999053245        0.1512626697       33.8592762404
  H         5.3143364892        1.0821200936       19.8841345724
  H         5.8324252485        0.7594870353       18.3003746002
  C         4.3623687786        2.3923891108       18.4493848644
  H        12.5286920491        0.6793777212       21.6914809350
  H        13.2682446857        1.1290083442       20.2713120995
  C        13.7584925651        2.4598325537       21.9332736625
  N         9.7421418778        8.5683720668       17.8894156648
  C        10.5241723151        8.2522267469       15.7065453197
  C        10.5430304652        6.0472938555       14.5826788508
  H        10.2955505864        4.3580362187       15.8619349023
  H         1.4757671529        4.3906524227       30.8205210427
  H         2.5558923521        5.6172722364       31.3574046357
  H         1.0663979771        6.2243440924       30.6187832640
  S         4.4838186810        1.7653353857       34.3616728381
  C         4.8498095049       -0.8836785839       34.9224459983
  H         4.1651655173        3.2077176403       19.1912954059
  H         4.6053287591        2.9255461481       17.5055511909
  C         3.0650199036        1.5306076183       18.4526408115
  H        13.1633397630        2.9697538581       22.6899770278
  H        14.2346414127        3.1531398954       21.1477532408
  C        14.8451125278        1.8038296938       22.7506330741
  S        10.0801930568       10.0934962472       17.3519822512
  N        10.4989396115        9.6767097652       15.8481416975
  C        10.7074707261        7.5751660402       14.5242996026
  H        10.5707586202        5.4403743252       13.7221636666
  C         4.2201169783        1.0593916400       35.9094655918
  N         4.4933877952       -0.2754254474       36.0524809116
  O         5.1178541932       -2.0598979165       34.7596368262
  H         2.2573788928        2.1777809369       18.1562559538
  H         2.7041237744        1.3885677978       19.4434540358
  C         3.1970741888        0.1969460805       17.6756726524
  H        14.3912683850        0.9944152098       23.3711285347
  H        15.4106265733        1.2669139524       22.0118288742
  C        15.8579327754        2.6980777171       23.4541691125
  C        10.9744409931        8.2714045452       13.3487448365
  S         3.8870271828        1.9989832725       37.3096223732
  C         4.3785456190       -1.0086769966       37.3821488039
  H         3.5243305015        0.4389675347       16.6300789874
  H         3.9514914081       -0.4432645202       18.0733043445
  C         1.8741212351       -0.6153298859       17.5183398686
  H        15.5203693504        2.8950310056       24.4613265013
  H        15.9774610557        3.6539389509       22.9435734257
  C        17.3176659151        2.1221273879       23.5303853162
  H        10.7010213351        9.2943922491       13.3418974761
  C        11.4828570780        7.8305180813       12.1321799218
  H         3.6108540361       -0.5937517942       38.0391462067
  H         4.0862909175       -2.0196311954       37.2942028774
  C         5.8252625778       -1.0453187666       37.9880834521
  H         1.3220929309       -0.1937633208       16.6115342991
  H         1.1531681517       -0.4932221688       18.3688760495
  C         2.3166572770       -2.1081772255       17.4124922391
  H        18.0448959748        2.7122708180       24.1457926333
  H        17.1142203605        1.2104544393       24.0516996743
  C        17.9790433671        1.9229444434       22.1963076546
  S        12.0927957150        6.1879247898       11.7530356494
  C        11.6426106064        8.8682666343       11.1034659684
  H         6.4111438140       -1.9011801204       37.8768044200
  H         6.4093742393       -0.1885677900       37.6776677367
  H         5.7380010715       -0.9230439842       39.0837864250
  H         1.5255565845       -2.7841583717       17.0943742920
  H         2.7011573525       -2.5449128705       18.3936630059
  H         3.1823575221       -2.2449104024       16.7427573207
  H        17.3372357596        1.3413610699       21.4898539466
  H        18.9924249306        1.4884778609       22.1501050682
  H        18.1499114952        2.9112936474       21.7309236616
  C        12.4120400257        6.9640834014       10.1558522803
  N        12.2498195808        8.2944466539       10.0339921530
  O        11.2524316995       10.0438098218       11.1504388147
  S        13.1066460428        6.1938737042        8.6888343283
  C        12.3506335150        9.1191990961        8.8349787293
  H        12.6114138109       10.0940876782        9.2204120177
  H        13.1889086772        8.7751517254        8.2946161681
  C        11.0529268108        9.1759195433        8.0063138784
  H        11.0509229288        9.9108028983        7.2106405444
  H        10.7921172154        8.1839422174        7.4741524370
  H        10.1643991033        9.3195843997        8.7141358592
  H         4.4592020210        1.4806344522       12.1366177565
  C         3.6572902833        2.2083387240       12.0696952753
  H         4.2134994957        3.0825844370       11.9982780693
  C         2.8292517714        2.0754907969       10.7449444418
  C         2.7172599216        1.9583843286       13.2168898397
  C         3.6803590956        2.3396690510        9.5357549152
  H         2.0022842709        2.8344406604       10.7408196183
  H         2.4560034003        1.0813503745       10.5288823203
  H         2.1623795916        1.0070523471       13.2081024859
  H         2.1173953608        2.8565384340       13.3304635327
  H         3.2923541821        1.8987317792       14.1346066235
  C         4.6080859258        1.1435262530        9.2365958126
  H         3.1090073946        2.3957887124        8.6080123126
  H         4.1686663884        3.2732245253        9.5705298240
  C         5.3562343024        1.4703501438        8.0011049384
  H         4.1084156437        0.2410691595        9.3047431135
  H         5.2315855916        1.0639689747       10.1324179451
  C         6.6090824439        2.3562197372        8.2690527786
  H         4.6881000342        1.9097593113        7.2552775192
  H         5.7572069023        0.5781238567        7.5483256315
  C         7.8804514747        1.5946055271        8.6477741807
  H         6.7644752859        2.9314102844        7.3700881272
  H         6.3214256557        3.0434892561        9.0501721976
  C         9.1047038064        2.5196039440        8.9007021922
  H         8.0800402463        1.1100591756        7.7633519392
  H         7.7238058416        0.9889650423        9.5485149500
  C         8.8565147475        3.8125718917        9.6541021999
  C         9.5372561179        3.2556382805        7.7076207335
  C        10.2018389160        1.7949149929        9.6846310627
  C         9.1290922449        4.9691397911        8.9252321720
  C         8.1919390918        4.1360477953       10.9318011705
  C         9.5309532358        4.6282226456        7.6521476341
  C        10.0914370845        2.6899058886        6.6067464042
  H         9.7559054504        1.2434639998       10.5217512247
  H        10.6923308895        1.1166536985        9.0280040468
  C        11.3063151219        2.7359133731       10.2598466783
  S         8.8007501258        6.4558859554        9.7635322310
  C         8.1146281131        5.5164880991       11.1209313359
  H         8.0064695851        3.3396033910       11.6291633162
  C         9.8567324419        5.2580086812        6.4727442175
  H        10.2521212394        1.6641311628        6.6779655575
  C        10.3583509721        3.3014641632        5.3920749462
  H        10.9695804519        3.5039846997       10.9332475422
  H        11.8427705325        3.3167232534        9.5074459570
  C        12.4153891119        1.9031800655       10.9693286999
  C         7.7432517520        6.1766822492       12.4243050760
  C        10.2314702339        4.6479533381        5.2454923670
  H         9.8582667460        6.3474070727        6.5922378318
  C        10.6928986528        2.8894820129        4.1362651181
  H        13.4374369639        2.2943407723       10.8722951076
  H        12.5251512190        0.9178823364       10.4536217449
  C        12.1747147506        1.6769836720       12.4498178698
  C         7.7567048799        7.5761123469       12.6454731761
  C         7.3043532338        5.3900913478       13.5626914276
  C        10.5559043675        5.4167108992        3.9760539579
  C        10.7525942044        4.0169205730        3.2338885390
  S        11.1307133010        1.4303031612        3.3850180450
  H        11.5227148110        2.4342646185       12.8474296320
  H        11.5989503565        0.6807408294       12.4805897546
  C        13.5131166060        1.5817688014       13.1539925446
  N         8.1869339931        8.5421257927       11.7333846732
  C         7.3606238565        8.1073418732       13.8659123896
  C         6.9655251579        5.9189556139       14.8014639546
  H         7.3284451163        4.2955974093       13.4574598622
  C        11.9368511766        6.1796274160        4.1443684507
  C         9.2956477943        6.1788708970        3.4842708598
  C        11.1775411269        3.5837298784        1.9307192372
  C        11.2732650130        2.2193447779        1.9407482433
  H        13.8802607961        2.6523781047       13.1574952698
  H        14.3310413475        0.9974110010       12.6407324353
  C        13.3934945311        1.0165938047       14.5709837159
  S         7.8781319208        9.9958921360       12.3883262645
  N         7.5785012068        9.4963462668       13.9168835543
  C         7.0040182968        7.3436585234       15.0224226810
  H         6.7834135702        5.2339325555       15.6314144104
  H        11.8014825443        7.0788865381        4.7268966575
  H        12.2198469875        6.3322784956        3.1073339853
  C        13.0691761016        5.3377881135        4.8187501932
  H         9.0870737990        6.9408601986        4.2506600788
  H         9.5508438493        6.7509824154        2.5925669958
  C         8.1165392327        5.2356252234        3.0440237337
  H        11.2227172390        4.3337286260        1.1742893085
  C        11.6831019045        1.5233955452        0.6644304140
  H        13.1145070677       -0.0275932512       14.5519827741
  H        14.4724937990        1.1647353061       15.0155306018
  C        12.2914428453        1.7030635802       15.5109379698
  C         6.8171784292        7.9017656117       16.3175571213
  H        12.6065925091        5.0264460978        5.7476154895
  H        13.2894241521        4.5170236997        4.1450443521
  C        14.3663743011        6.1505360409        4.9845623865
  H         7.7524620098        4.7605341189        3.9463742467
  H         8.4113975412        4.3635936785        2.4606123488
  C         7.0572427593        5.9999334035        2.2773712964
  C        11.9206585607        0.0958447866        0.5279920988
  C        11.7530252023        2.3084052936       -0.6133868288
  H        11.2478493660        1.5167851672       15.3157278662
  H        12.2973532928        2.7579708776       15.2675656010
  C        12.5624620324        1.5782781910       16.9981358153
  H         7.0242333527        8.9533822530       16.3618688485
  C         6.4169978452        7.5005837634       17.5952847856
  H        14.1143357806        7.0314539796        5.5733743185
  H        14.7896551477        6.4432404451        4.1046392153
  C        15.3628591279        5.3504736702        5.7711779060
  H         6.9497177346        6.9864459167        2.8265588867
  H         7.3307706986        6.2849405983        1.2482274814
  C         5.6201081359        5.3526118232        2.3672665334
  N        11.7051295454       -0.7795884181        1.5312576292
  C        12.2422564761       -0.4944280545       -0.6773656065
  C        11.9991370713        1.6103088988       -1.8032835862
  H        11.6020499787        3.4292472840       -0.7407779005
  H        13.5840635596        1.6127207777       17.2555305348
  H        12.0916514606        0.6121704443       17.3269376648
  H        12.0831177011        2.3680295336       17.5580580365
  S         6.0819231566        5.9361976643       18.1646872692
  C         6.2998201447        8.5835545103       18.6013659652
  H        14.8023418029        4.8700363788        6.5893189350
  H        15.6625020998        4.5420530891        5.0823343843
  C        16.6016608488        6.0950208748        6.1285019839
  H         5.2778079881        5.3381470325        3.3602511511
  H         5.6505990575        4.2853508281        1.9704874325
  C         4.5255190543        6.0416397019        1.6173493813
  S        11.8557564495       -2.2941514990        0.8990498862
  N        12.3429618602       -1.8972733284       -0.5755311677
  C        12.3250018142        0.1711549710       -1.8993512085
  H        11.9519561760        2.1954811413       -2.7065827413
  C         5.8692162606        6.6780830295       19.6945558431
  N         6.0482714188        7.9921604670       19.8069774111
  O         6.5339207507        9.7655636634       18.4360374311
  H        17.0218053523        6.7100295344        5.3458311805
  H        16.1468944935        6.7726523790        6.8467048201
  C        17.6333136797        5.1675697299        6.6222732342
  H         4.7997612233        6.1568575151        0.5617341263
  H         3.6238711366        5.4714568287        1.6238759492
  C         4.2539271458        7.4293090343        2.2724720870
  C        12.6301015529       -0.6026627798       -3.0380906066
  S         5.4587567700        5.7753981285       21.1177724551
  C         6.0664102540        8.8486347200       21.0196440900
  H        17.3086119736        4.6553004116        7.5191846024
  H        17.9594088440        4.4281080389        5.8810596246
  C        18.9335720030        5.9752809831        6.8675448426
  H         4.9095478524        7.5896249570        3.1287557373
  H         3.2675289947        7.3221442623        2.6842250757
  C         4.2311910470        8.7059807463        1.3687926378
  H        12.3252227784       -1.6182508907       -3.0465899278
  C        13.2773377486       -0.3610120347       -4.2248892456
  H         5.3288154427        8.4749886915       21.6952697837
  H         5.8285261158        9.8343528960       20.6427303913
  C         7.4326109610        8.8298652518       21.6074729446
  H        19.4682803462        5.5657953967        7.8007330282
  H        18.5658092707        6.9793840804        7.0931611286
  C        19.8724982747        5.7917040742        5.6531822501
  H         5.1458093855        8.7017666541        0.8134768420
  H         3.3612890736        8.6084356689        0.6148895386
  C         4.0941749096       10.0430843809        2.1175405139
  S        13.6541387966        1.2172987617       -4.8335953580
  C        13.6701550027       -1.4764792217       -5.1460769149
  H         7.4878331911        8.2700508679       22.5160765936
  H         7.7753305407        9.8675163795       21.7372460418
  H         8.2203712503        8.4081798326       20.9524589373
  H        20.7844233265        6.4478943835        5.8231750911
  H        20.0505906676        4.7774483417        5.4492451151
  H        19.3768516917        6.1574324589        4.7015692018
  H         3.0733844756       10.1351981403        2.4300822378
  H         4.8223721099       10.2129368107        2.9135857088
  H         4.2861219757       10.7683802976        1.2936819877
  C        14.4606900325        0.3750914113       -6.1860029620
  N        14.2874594252       -0.9660672607       -6.2111754219
  O        13.2315768324       -2.6063663389       -5.0262034714
  S        14.9564461370        1.1339731336       -7.7523917141
  C        14.5166356309       -1.8663022524       -7.3298942636
  H        14.7779554421       -2.8707932510       -7.0387274505
  H        15.3628248157       -1.5898799525       -7.8596596168
  C        13.2923083463       -1.7732624899       -8.2779679096
  H        13.3564872399       -1.0510683061       -9.0757971036
  H        12.3760625531       -1.6615875294       -7.7091699285
  H        13.1720654394       -2.7662833886       -8.7708188562
