352
 i =    76100, time =    38050.000, E =        99.0653304832
  H        12.3415454914        6.6837270633       32.7185018456
  C        11.6810220658        5.8235285525       32.6459366195
  H        12.4745976059        5.1030264164       32.3671934665
  C        10.6659003438        6.0669378270       31.5671568809
  C        11.2131997813        5.5692019758       34.0975598687
  C        11.3201059246        6.1841156677       30.1645692297
  H        10.0875037728        5.1516237646       31.5856859729
  H        10.1348728237        7.0505276595       31.8130799007
  H        10.1701489091        5.9525776940       34.1260904365
  H        11.1284043429        4.4176260836       34.1736631271
  H        11.8640795137        6.0953893857       34.7870885508
  C        10.2580266707        6.1271881285       29.0404457834
  H        11.9675712952        5.3533382676       30.0351506649
  H        12.0678961437        7.0272559965       30.0129242542
  C        10.8568910155        5.6933981330       27.7069034392
  H         9.3790341013        5.5923273050       29.3675075547
  H         9.8174237461        7.0792303617       28.9582548110
  C         9.8564352757        5.0957330954       26.7281543790
  H        11.7104249935        4.9789286019       27.9199565712
  H        11.3147908131        6.6055956234       27.2949079164
  C         8.7354536838        5.9979263082       26.2653888120
  H        10.5207723431        4.7588358754       25.9002514310
  H         9.4982378894        4.2201142742       27.2135575622
  C         7.5111388808        5.2193808821       25.6099566616
  H         8.3360312205        6.4055654574       27.2026978401
  H         9.0730321989        6.8064197826       25.5397141406
  C         7.0910624922        3.8780567215       26.3511683767
  C         7.9122016585        4.4275011577       24.4309222615
  C         6.3940787412        6.2679796352       25.3657201424
  C         7.3574254770        2.7019912139       25.6091850367
  C         6.5510630767        3.5530422700       27.6066255487
  C         7.8686346428        3.0487848798       24.3886723779
  C         8.5097262431        5.0025100641       23.2791413121
  H         6.6511188546        7.1217635831       24.7544089292
  H         6.2492646476        6.7426299081       26.3203390902
  C         5.1133910196        5.5295202570       24.9341272178
  S         6.8738501576        1.2643727937       26.3502942222
  C         6.4182977915        2.1898282188       27.7335958085
  H         6.2986201943        4.3888768688       28.2022440940
  C         8.2435889064        2.3858569080       23.2741055810
  H         8.5618698302        6.0828659133       23.2311939094
  C         8.8611414031        4.3133771281       22.1311518158
  H         5.1977132328        4.9420688178       23.9711920375
  H         4.7595555144        4.8973485254       25.6916122285
  C         3.8959125079        6.3644508639       24.7180169639
  C         5.9425462337        1.5167061505       28.9984171930
  C         8.7074748411        2.9649003646       22.0541859492
  H         8.1704674755        1.3309837140       23.2721991839
  C         9.2205452675        4.6680091117       20.8476643940
  H         3.1681635410        5.7525494381       24.0894750805
  H         4.1032101303        7.1714587885       24.1510321911
  C         3.0321710044        6.5710993605       26.0016730246
  C         6.0370855028        0.1458135466       29.2517271321
  C         5.4228264569        2.4059190261       30.0752958297
  C         9.0775143947        2.2365901780       20.7455639986
  C         9.3182552750        3.5257509915       20.0276763636
  S         9.5165282869        6.1488564679       20.0005284753
  H         2.3802019395        7.4774571913       25.8788855243
  H         3.7025384730        6.7863918964       26.7804718135
  C         2.1510311906        5.3831853163       26.4115624416
  N         6.4637924561       -0.8171780144       28.3983774660
  C         5.8124314356       -0.3143232176       30.5911800870
  C         5.0926346681        1.8888903702       31.3395286328
  H         5.1636751685        3.3972186264       29.8667310201
  C         7.8207715738        1.4770540135       20.2550368906
  C        10.2978849210        1.3665664258       20.9098431591
  C         9.6649285360        3.9293024121       18.6890105161
  C         9.7394225245        5.2914880373       18.5357791009
  H         1.3234520018        5.5172335752       25.6837317711
  H         2.4250177086        4.3403634571       26.2333751993
  C         1.4218943971        5.5256366025       27.7697223869
  S         6.4543975238       -2.2532825714       29.1822584234
  N         5.9649937527       -1.7096709686       30.6347598218
  C         5.2951270197        0.4479358202       31.6458212590
  H         4.5615178996        2.4927728174       32.0449527661
  H         7.4864107901        0.8947209592       21.0996013544
  H         8.1753829942        0.8183566931       19.4545002364
  C         6.6321838630        2.3728291733       19.7614717334
  H        10.3772081073        0.9208805692       19.8860925127
  H        10.1693618259        0.5134297047       21.6236687491
  C        11.6026149871        2.0423565433       21.3339845533
  H         9.6618154084        3.1199080266       17.9985664718
  C        10.0492166735        6.0652299595       17.2978813372
  H         0.6922469627        4.6618210010       27.8954255114
  H         0.8849449689        6.5174975368       28.0330317858
  C         2.4733450091        5.3174681560       28.8830793698
  C         4.9159036403       -0.2459782120       32.8438392398
  H         6.9826787492        3.0991308355       18.9756864895
  H         6.1918924324        2.9653282491       20.5570642200
  C         5.4147763253        1.5383343327       19.2813597001
  H        11.3651086012        2.5678430418       22.2899290237
  H        11.9511990588        2.6859081939       20.4645464365
  C        12.7909855062        1.1069732255       21.4975438066
  C        10.1105929151        7.4783550071       17.1224874521
  C        10.1518817349        5.2817483811       16.0257771406
  H         3.0883110918        4.4663383047       28.6383185612
  H         3.2223407178        6.1199341403       28.8134566958
  C         1.8753154321        5.3207766431       30.2593432746
  H         4.8427708815       -1.3467682928       32.7340573425
  C         4.5585000068        0.0813973120       34.1583848325
  H         4.8628898499        1.1964882074       20.1999449729
  H         5.7271693703        0.6862084735       18.7719189665
  C         4.5616459494        2.4407575121       18.3414833470
  H        12.7271787245        0.4923168521       22.3104757399
  H        12.7814117555        0.4602373598       20.5849558973
  C        14.1645903913        1.7878217241       21.7035584999
  N         9.9401038183        8.3975023289       18.0976157968
  C        10.4140723357        8.0891707299       15.9385772027
  C        10.5836560048        5.8867852480       14.8009332973
  H        10.0898993322        4.1893797437       16.0604983678
  H         1.2440346286        6.2572585864       30.3476547640
  H         1.1555564390        4.5260076089       30.3277029748
  H         2.6383762520        5.1925656289       31.0388362060
  S         4.2725417585        1.6555329817       34.5695323712
  C         4.5353278551       -0.8640138635       35.1958502211
  H         4.3586074770        3.4510418655       18.8061258359
  H         5.0049735493        2.7034477687       17.3632058681
  C         3.1290648987        1.8806188555       18.0618433016
  H        14.3273671679        2.5183251014       20.9429358833
  H        15.0138916544        1.1396690509       21.5855688515
  C        14.3536767423        2.3617027463       23.1293090327
  S         9.9659057896        9.8674919111       17.4668888061
  N        10.3412757601        9.5108240517       15.9326822415
  C        10.6944883088        7.3948554107       14.7690735115
  H        10.6736742768        5.3231077849       13.8965741237
  C         4.3023144094        1.0698693164       36.2690721936
  N         4.3450716837       -0.3019822405       36.3621167779
  O         4.8905782600       -2.0607443444       35.0599706597
  H         2.5429673144        2.6007900667       17.4123980027
  H         2.5867667908        1.7136917364       19.0284365046
  C         3.2096861070        0.5940077478       17.2332967110
  H        13.3736101891        2.7955525155       23.4473540041
  H        14.6140636109        1.5709826005       23.8479431957
  C        15.4645937331        3.3854421610       23.3119688013
  C        11.0055149357        8.1642483686       13.6152627400
  S         3.8828434800        2.0637853293       37.6367758183
  C         4.3787180807       -1.0599066870       37.6084355440
  H         3.2965666108        0.8974639851       16.1793128863
  H         4.0775323361        0.0833426431       17.5258876791
  C         2.1061614515       -0.4489176850       17.4894949965
  H        15.5892738947        3.5344399729       24.3722895137
  H        15.1234151903        4.3292398045       22.8761803681
  C        16.8980753104        3.0420268415       22.8085979126
  H        10.9646148560        9.2174753240       13.6661343773
  C        11.4387264221        7.7466976365       12.4045886655
  H         3.8075234743       -0.6090935760       38.3562299994
  H         3.9740242657       -2.0732949425       37.4374589628
  C         5.8330197650       -1.1505382707       37.9743548355
  H         2.3667136891       -1.2178804580       16.8863805194
  H         1.1265175353       -0.2612015755       17.1702977306
  C         2.0969974263       -1.0407599996       18.8543785395
  H        16.8976066104        2.6724537431       21.7644764009
  H        17.5134648471        3.9727213429       22.9104050114
  C        17.5957167563        1.9687941668       23.6321236300
  S        11.9954748266        6.2340298421       11.8137014360
  C        11.6488427564        8.8188213043       11.4158783385
  H         6.0246847218       -2.0340061678       38.4825307814
  H         6.5779854168       -1.0231802392       37.2067425667
  H         6.1066268411       -0.4039500409       38.7316699728
  H         3.0822773122       -1.0858204092       19.2277422346
  H         1.7951308701       -2.0583133805       18.8742281979
  H         1.4709404848       -0.5303982403       19.5076698983
  H        18.6865554687        2.1593936704       23.8139561560
  H        17.5607763996        1.0313282115       23.0697895252
  H        17.1474340601        1.7226600233       24.5946510831
  C        12.3704200156        7.0528638440       10.3270547436
  N        12.1655794476        8.3552564564       10.2599917027
  O        11.3528704556       10.0284646647       11.6218276976
  S        13.0936276660        6.2633446510        8.9155343174
  C        12.2674703231        9.2079580329        9.1001912750
  H        12.1973488701       10.2089784612        9.4710844821
  H        13.2956444776        9.1494182318        8.7527542709
  C        11.1610725041        8.8712318309        8.0324768194
  H        10.3320437715        8.3449553517        8.4137443566
  H        10.7774354723        9.7968175804        7.6965220373
  H        11.4588308586        8.4263579926        7.0974431567
  H         1.9657494742        1.8122596374       12.1721028956
  C         2.9924783829        2.2506622406       12.1753364303
  H         3.6586237550        1.3982437603       12.0224501615
  C         3.0963133476        3.2255282492       11.0315120047
  C         3.3176350596        2.7242260344       13.6074101641
  C         4.4302753397        3.1568304904       10.2545607856
  H         2.8822463374        4.2044391974       11.4598017564
  H         2.2208958254        2.9920345998       10.4584163413
  H         3.3746226180        3.8289066261       13.6000368359
  H         4.2894724958        2.4634631300       14.0451293896
  H         2.4975236955        2.4250042887       14.2694287447
  C         4.7410563518        1.8465141752        9.5531962273
  H         4.3759178865        3.8476894142        9.4972570174
  H         5.2635157829        3.3729993951       10.9089378575
  C         5.3865770232        1.8630019111        8.1293205013
  H         3.8426688040        1.2354093505        9.4337585201
  H         5.3125487691        1.3854596612       10.3362370320
  C         6.7195961059        2.7231581733        8.2364580614
  H         4.7314898539        2.3608843092        7.4492581537
  H         5.6338354986        0.8689182429        7.7476098861
  C         7.8584537829        1.9573192338        8.9063078487
  H         7.1274732569        2.8539883478        7.2458552639
  H         6.5596035293        3.7698755810        8.5714818744
  C         9.1239085258        2.8983702975        9.1533762096
  H         8.1956150547        1.1007590257        8.3422986551
  H         7.6220561196        1.5706304270        9.8727264524
  C         8.6825212739        4.2671895238        9.8465206060
  C         9.5340578595        3.6355524881        7.9106067450
  C        10.2978750552        2.1171555795        9.8424153832
  C         8.9140769886        5.3692255082        9.0490097529
  C         8.2184046010        4.6139499921       11.0991407156
  C         9.4833201281        5.0218643166        7.8484384835
  C        10.1447386777        3.0280920345        6.8062420778
  H         9.9019488965        1.5744521920       10.6915704312
  H        10.6552398129        1.3045722341        9.1655150558
  C        11.5125260732        2.9773685503       10.2470578107
  S         8.4628875568        6.8798188920        9.8268830649
  C         8.1402243226        5.9912647177       11.2548999285
  H         8.0342694592        3.8092012420       11.7684332477
  C         9.8687231272        5.6296410828        6.6856398262
  H        10.2197530993        1.9240571982        6.8649095090
  C        10.4514634335        3.6486842260        5.6561770743
  H        11.0791954523        3.8722571352       10.7351670164
  H        12.0714339750        3.2609196183        9.3947479044
  C        12.5127233968        2.2285689681       11.1425000371
  C         7.7952614705        6.6835252382       12.5375394503
  C        10.3001096512        4.9672329037        5.5057256884
  H         9.7534279754        6.7039524168        6.5760922393
  C        10.9739604042        3.1899626373        4.4305864318
  H        13.5029582763        2.7282342700       11.0925975008
  H        12.6492480028        1.2794094315       10.6155628836
  C        12.0871426824        2.1272308267       12.6276526081
  C         7.8611190620        8.0729218135       12.8850333585
  C         7.1958757392        5.9015630209       13.6098222065
  C        10.7235011556        5.5714457676        4.2060487552
  C        11.0927150003        4.2486710230        3.5689929808
  S        11.3068774329        1.6605409727        3.7826572987
  H        11.4964264033        3.0521332774       12.8221981710
  H        11.3355263587        1.3138078898       12.7744673797
  C        13.1571292322        1.7949435008       13.6412222106
  N         8.1697147656        9.0445656321       11.9345813598
  C         7.6811144008        8.6457873631       14.1520741025
  C         7.0319845936        6.4071041548       14.9268788988
  H         6.9386240481        4.8295405306       13.4820127805
  C        11.9585982513        6.4264040173        4.4264804179
  C         9.6215877042        6.4303632491        3.5049132208
  C        11.5190856694        3.8394709972        2.2321544135
  C        11.6967065595        2.4533059131        2.2170471695
  H        13.7716706835        2.6361639311       13.9372727329
  H        13.9102509302        1.1277322834       13.2811484337
  C        12.7809247743        1.2538651894       15.0461777289
  S         8.0478527440       10.4783820304       12.6359809352
  N         7.8740903169       10.0800281925       14.2004773005
  C         7.3241309695        7.8239694108       15.2568911983
  H         6.6331138849        5.7343675737       15.7078157966
  H        11.8111551193        7.2832955495        5.0836600504
  H        12.2483960334        6.7765841957        3.4897238905
  C        13.1702391959        5.6031449265        5.0160890647
  H         9.0999987989        7.0073683762        4.2504072001
  H        10.1596591422        7.0675246866        2.7967478148
  C         8.4899778975        5.7232957162        2.6863716753
  H        11.5636135167        4.5897859615        1.4320533402
  C        12.1031015687        1.6653845809        1.0167348209
  H        12.1110588263        0.4404783133       15.0490316448
  H        13.6783327663        0.9004374703       15.6273344906
  C        12.1097454619        2.2582615507       15.9131811402
  C         6.9750293732        8.4913152810       16.4721872219
  H        12.8719845759        5.1425549365        5.9498810358
  H        13.3998601373        4.7009094600        4.4319090346
  C        14.4385185918        6.4379124928        5.3069098954
  H         8.0336648931        4.9419093153        3.2353619807
  H         8.8620601450        5.0921258878        1.9110940263
  C         7.4937965002        6.6940308320        2.1257544595
  C        11.9934435391        0.2833979044        0.8910290233
  C        12.3347023079        2.4026707992       -0.2576304321
  H        11.1400923546        1.7984991284       16.1622779966
  H        11.9635700729        3.1941535222       15.4619986306
  C        12.9197851124        2.4732427021       17.2222902399
  H         7.1987988520        9.5920934423       16.5720900673
  C         6.6649676954        8.0164358584       17.7354385137
  H        14.2115528431        7.3507536448        5.9002054362
  H        14.8367795513        6.7704463295        4.3446712417
  C        15.4690132796        5.5805435584        6.0642357403
  H         7.0159285528        7.3841699365        2.8646134342
  H         8.0927634812        7.3243142987        1.4812342826
  C         6.4563351614        6.0486663189        1.2391614361
  N        11.7371864491       -0.6134596156        1.8650291360
  C        12.2097907059       -0.3161691214       -0.3720812420
  C        12.6090818344        1.8091260733       -1.4715160308
  H        12.2907995291        3.5151342584       -0.2014692780
  H        13.8707243347        2.8544079868       16.9819240034
  H        13.0116394548        1.4795400009       17.6793967469
  H        12.3755371671        3.1157393447       17.8851764729
  S         6.3441204693        6.4507904547       18.1725257959
  C         6.6583619106        8.9747263654       18.8758360020
  H        15.1330296137        5.0473412217        6.9823825713
  H        15.6292243999        4.8508717510        5.2840487386
  C        16.7172335986        6.3594524889        6.4743633833
  H         6.4054161332        4.9828682364        1.5072912526
  H         6.8846429239        6.0946602767        0.2795146418
  C         5.0987141583        6.7808007214        1.2628572578
  S        11.6673328213       -2.1348482472        1.2463568287
  N        12.0785507632       -1.7015540598       -0.3026002100
  C        12.4666118737        0.3389223476       -1.6102157765
  H        12.9054236026        2.4552549507       -2.3356840366
  C         6.0477162450        7.0262540030       19.7401018215
  N         6.2012696745        8.3474248536       19.9500850131
  O         6.8585212743       10.1900395500       18.7611031595
  H        17.0341711866        6.8079036084        5.5583841584
  H        16.4944379295        7.1939868159        7.2104385847
  C        17.8648100467        5.4233961273        6.9262089523
  H         4.3025634914        6.0618301380        1.1039661838
  H         4.9366101830        7.1981703455        2.2741004303
  C         5.2110130120        7.9023955490        0.2409356113
  C        12.8541078528       -0.3520516143       -2.7680602486
  S         5.7008727781        6.0631709888       21.1590313247
  C         6.3479953229        8.9973668095       21.2648071328
  H        17.5900496535        4.9560860242        7.8799601986
  H        17.9740739855        4.7169238027        6.0846649497
  C        19.1991032931        6.1411961234        7.1119394630
  H         5.1414529610        7.4834885982       -0.7636641338
  H         6.1638483149        8.4673927657        0.2756266693
  C         4.1085859939        8.8394864694        0.4136769576
  H        12.6403571303       -1.4781745620       -2.6554353162
  C        13.3929256049       -0.0886145377       -3.9739672935
  H         5.6506981766        8.5999496317       21.9536041338
  H         6.1330941128       10.1060465522       21.2998059843
  C         7.7164844508        8.7061230887       21.9627129246
  H        19.6784849306        5.7355104656        8.0170694679
  H        19.0992223004        7.1989219080        7.1448412832
  C        19.9369225274        5.8709585253        5.8936791945
  H         3.5882454052        8.8975980960       -0.5146636594
  H         3.4320233558        8.5333623503        1.1425681624
  C         4.6713900035       10.2318968222        0.8158601279
  S        13.9770321515        1.4605129448       -4.5720120785
  C        13.4653527862       -1.1280686291       -5.0226300145
  H         7.6054447641        8.5192675803       22.9983885919
  H         8.4373512487        9.5566548682       21.8026258878
  H         8.1373501720        7.7956148685       21.5695876361
  H        19.3433867307        6.0653313586        4.9983647852
  H        20.7527503179        6.5516188211        5.8734032501
  H        20.3570834878        4.8824200482        5.7933813272
  H         5.4299181214       10.6302906404        0.2011850798
  H         3.8134049863       10.9059768636        0.6950021980
  H         5.0459912026       10.4263305360        1.8205549870
  C        14.3365766727        0.6313772403       -6.0947706153
  N        14.0667168920       -0.6873453088       -6.1519352714
  O        13.1029940985       -2.2854196876       -4.8933421235
  S        14.8303054467        1.5102421720       -7.5905068713
  C        14.3751908396       -1.4718088333       -7.3476260236
  H        14.2177094055       -2.4466259524       -7.0120579463
  H        15.3207971327       -1.2934542798       -7.5869871004
  C        13.3404266067       -1.2235658298       -8.4606308497
  H        12.4644894558       -0.7879891168       -8.1542207605
  H        13.0641712522       -2.2458808884       -8.8162456952
  H        13.6528453077       -0.6112612467       -9.3510411372
