352
 i =    87400, time =    43700.000, E =        98.4628871638
  H        11.7958476141        6.9282075851       32.8987930270
  C        11.6264090862        5.9575341103       32.6995509146
  H        12.6349079220        5.5809517872       32.5537478626
  C        10.6071502952        5.8180791834       31.4750719881
  C        10.9896171113        5.4806460531       33.9952131088
  C        11.1808087247        6.1657060938       30.0852944711
  H        10.1316470124        4.8729494432       31.4366346472
  H         9.8095803418        6.5144898081       31.7789045192
  H        11.7544101379        5.1381830301       34.7686803415
  H        10.4007529591        6.3077901133       34.4452022569
  H        10.3130936280        4.6777566726       33.8061695834
  C        10.1441585961        6.0430213363       28.9344881370
  H        12.0250992760        5.4819391278       29.8670482190
  H        11.5961853027        7.1291578329       30.0613820135
  C        10.7101182845        5.9589515435       27.5601380462
  H         9.5214721044        5.1588616409       29.1915415964
  H         9.4201061890        6.8100977251       28.9267014853
  C         9.6813214280        5.2491089241       26.6152705543
  H        11.5896582446        5.3228746549       27.6426926430
  H        10.9807664610        6.9914923198       27.3459070907
  C         8.4753640934        6.1455309617       26.3708033558
  H        10.1449140335        4.8813202626       25.7429842298
  H         9.1877733462        4.3703218870       27.0519529676
  C         7.2812604324        5.3419485148       25.7388380523
  H         8.1845906931        6.6424486369       27.2681466463
  H         8.6661046691        6.9454343842       25.5967084165
  C         6.8999885164        4.1163402800       26.5461708627
  C         7.5963425610        4.5799683620       24.4633505999
  C         6.0913871663        6.2925447230       25.4861715870
  C         6.9280600828        2.9651515411       25.7470260988
  C         6.4759641113        3.8072107507       27.8429527589
  C         7.4470669366        3.2442442217       24.4250203221
  C         8.0806853689        5.1364528122       23.2697686478
  H         6.2681596143        7.2342342043       24.9261024161
  H         5.7359158326        6.5105611560       26.5865163380
  C         4.9013756134        5.6570480204       24.7551988449
  S         6.4220565680        1.5380642229       26.4976273364
  C         6.2410416130        2.4355721940       27.9236143790
  H         6.3980682615        4.6403095261       28.5587830767
  C         7.8788572464        2.5510732260       23.2942234448
  H         8.2175308609        6.2478844429       23.3673574372
  C         8.4018891003        4.4388304768       22.1497608639
  H         5.0650673367        5.1628627443       23.7848731668
  H         4.6210910529        4.7316209072       25.2984985773
  C         3.6440912567        6.5402850357       24.7890150171
  C         5.8779567606        1.6830745659       29.1800740824
  C         8.4056554911        3.0874591821       22.1194958838
  H         7.5709440543        1.5296777150       23.3331919458
  C         8.8877708398        4.8264023059       20.9149751116
  H         2.9032978102        6.2237020200       23.9993769369
  H         3.9153557268        7.5455960192       24.4487114519
  C         2.9461114943        6.7824228691       26.1212959435
  C         5.8324078161        0.2060862970       29.3938709927
  C         5.4722757951        2.4665720406       30.3447709388
  C         8.7804633049        2.4249388468       20.8568062002
  C         9.0672361922        3.7505243974       20.1020185188
  S         9.1588058716        6.3697018746       20.1820122211
  H         1.9642555216        7.3246375503       26.0341744783
  H         3.5502033593        7.4796050821       26.7909435383
  C         2.7474089597        5.4771254054       26.9097150005
  N         6.0525701383       -0.7751555899       28.4763114770
  C         5.4562634879       -0.3341850425       30.5563074204
  C         5.1746172729        1.7749239161       31.5279054100
  H         5.4981514213        3.5705167118       30.2306847262
  C         7.6149549311        1.5331116758       20.5055697436
  C        10.1307890742        1.6382434472       20.9772964890
  C         9.4988500091        4.1700152392       18.8099389945
  C         9.7146234257        5.5402800484       18.7836128411
  H         2.2442218751        4.7377304446       26.3216052107
  H         3.6580346347        4.9980674591       27.2678652095
  C         1.7110000455        5.6849398033       28.0195698837
  S         6.0572341570       -2.2338991365       29.2257003612
  N         5.5425199005       -1.6977436460       30.6545818457
  C         5.1746822983        0.3419125800       31.7276682002
  H         5.1249431468        2.3058647080       32.4216657256
  H         7.5387372052        0.8607752335       21.3346200167
  H         7.9162858763        0.9133769570       19.6382592355
  C         6.2306931898        2.1943452041       20.2597903652
  H        10.2565926260        1.0784732445       20.0092327838
  H         9.9766729295        0.9515476302       21.7992078090
  C        11.3581328057        2.5146304292       21.1756396745
  H         9.5385835660        3.4263467833       18.0064567703
  C        10.0273809216        6.2932296001       17.5402073329
  H         0.9437260350        4.9226168221       27.9903480963
  H         1.2897092526        6.6387811368       27.8527953605
  C         2.4587947877        5.6316969098       29.2866408493
  C         4.9535540710       -0.3458454064       32.9941691630
  H         5.9828036354        3.0327702517       20.8907142682
  H         5.5106293276        1.4585613960       20.5076735611
  C         5.9928916180        2.5277689575       18.7431155469
  H        11.2754754848        3.1103893847       22.0922768137
  H        11.6086102395        3.1877381240       20.3253384887
  C        12.5428152700        1.5997175881       21.3677417573
  C        10.1020407410        7.7105819937       17.4244975606
  C        10.3750801941        5.5565208432       16.2943914990
  H         2.9584699383        4.6678675968       29.2678158423
  H         3.1921968528        6.3922691720       29.3987630344
  C         1.6460745555        5.7311629674       30.5014871725
  H         5.0423280090       -1.4067326299       32.8526924406
  C         4.6391636312        0.1308708414       34.2560405130
  H         6.7706425397        2.1558622779       18.0813094571
  H         6.0243884682        3.5810557438       18.6230205741
  C         4.6311626298        2.1296295569       18.2803542945
  H        12.2056544991        0.9751749845       22.1208543743
  H        12.6248213909        0.9991365483       20.4753074550
  C        13.7887703105        2.4129818891       21.5407739738
  N         9.7976690732        8.6295118709       18.5013493036
  C        10.2959179175        8.3809311298       16.2244917026
  C        10.5134206392        6.2385392900       15.0917464696
  H        10.4706712204        4.5134832481       16.2441762241
  H         0.9636900061        4.8799323765       30.3912166444
  H         2.1125633265        5.6043993489       31.5161914129
  H         0.9577895522        6.5470612296       30.6120738874
  S         4.3615505069        1.7592824132       34.7316131361
  C         4.6068052193       -0.9194176807       35.2657009620
  H         3.8481550249        2.4972980901       18.9409271709
  H         4.5257683041        2.6668298648       17.3320514718
  C         4.2548153110        0.5869789106       18.1968757115
  H        13.4393335750        3.4508203070       21.7719455052
  H        14.3110052547        2.4058030412       20.5575127208
  C        14.7331444889        1.8947827806       22.6841701321
  S         9.6637453355       10.1153162277       17.7774772053
  N        10.2529618893        9.7739403650       16.3074121158
  C        10.5332443645        7.7460218314       15.0019568066
  H        10.6877304126        5.7309978192       14.1266980327
  C         4.2207218500        1.0143594225       36.3479839818
  N         4.3798282779       -0.3247661287       36.4190890655
  O         4.6954159028       -2.1460288038       35.0448406894
  H         4.8050203689        0.1860703643       18.9975672172
  H         4.6503430535        0.3015585818       17.2064173568
  C         2.7424404932        0.3342050199       18.2950547427
  H        14.0936766930        1.6950999521       23.5142839051
  H        15.2154350037        0.8844671345       22.3959358820
  C        15.8786713096        2.8386460791       23.0204746736
  C        10.7029523337        8.5628946462       13.8107081498
  S         3.9107259490        1.6786527041       37.9380469555
  C         4.4216518641       -1.0379691226       37.6231271739
  H         2.3927304823        0.9393625678       19.1684800885
  H         2.1636975222        0.8000357561       17.5368589278
  C         2.3504449443       -1.1247474499       18.3728450932
  H        15.7110449213        3.1385831217       24.1059939698
  H        15.6790218729        3.7988627189       22.5523027482
  C        17.3211777588        2.3871145867       22.8667479143
  H        10.4479899578        9.5904370008       13.7855207642
  C        11.3077747844        8.3267409078       12.6011258482
  H         3.6386385306       -0.8374658763       38.3342187696
  H         4.3185538655       -2.0854759189       37.3642915000
  C         5.8130965645       -1.0958764640       38.2827898594
  H         1.2739333390       -1.1327837514       18.4345501158
  H         2.6275165759       -1.6548794342       19.2955061568
  C         2.8219030347       -1.9495767844       17.1150209095
  H        17.4307558438        1.8962175300       21.9018362684
  H        18.1032468975        3.1427097950       22.7895686856
  C        17.7525105214        1.5870885068       24.0604717249
  S        11.8176552143        6.8304715836       12.0298750015
  C        11.5532371904        9.4680482711       11.6841172836
  H         6.5946490093       -1.2006116111       37.5796495822
  H         6.0201894413       -0.2731140280       38.9435173233
  H         5.9238298845       -2.0797810047       38.7644094212
  H         3.8549356278       -2.2812671261       17.1874788904
  H         2.7618415437       -1.3571011893       16.1957430470
  H         2.3501577420       -2.9341430755       16.9677064460
  H        17.7547650549        2.1776937301       24.9500792166
  H        18.7244651558        1.1024808438       23.9811464910
  H        16.9872814225        0.8265166170       24.3604085287
  C        12.2600785959        7.6780045666       10.5705901706
  N        12.1065772824        9.0396708452       10.5869936272
  O        11.1996416797       10.6198675095       11.9625384362
  S        13.2666191580        6.9575413301        9.3022496620
  C        12.2729709415        9.9058522428        9.4338110711
  H        12.1815141816       10.9909195931        9.6900527012
  H        13.2528753870        9.8333429302        8.9635045734
  C        11.2166027016        9.4947023711        8.3971160102
  H        10.1897606130        9.7433430538        8.5951965271
  H        11.4729975105        9.9513810237        7.4153357473
  H        11.2159285217        8.4546426073        8.2498495625
  H         4.2875326586        1.3922858069       12.6421106118
  C         3.9061850268        2.4161356136       12.6510651756
  H         4.7746365442        3.1366211583       12.6878610455
  C         3.0501587676        2.7163283943       11.4317754405
  C         3.2367033864        2.6423079457       14.0120558336
  C         3.9183228875        2.8898548425       10.1762142615
  H         2.4546346178        3.6228679631       11.5648084736
  H         2.4208002840        1.9428539201       11.2505451544
  H         2.5677639123        1.8713052311       14.2379067394
  H         2.7412949002        3.5827787672       14.2146173491
  H         4.0262050732        2.4665374842       14.7434831977
  C         4.6055581075        1.6588218252        9.5500616279
  H         3.2103548884        3.2799192780        9.4596069590
  H         4.6857450757        3.6622742520       10.2987323771
  C         5.3029069465        1.9444013871        8.2077943509
  H         3.9602203506        0.8375510135        9.4893426057
  H         5.4151988564        1.3589883287       10.2098054428
  C         6.5778832065        2.7936150337        8.3754560563
  H         4.6085900545        2.4778586517        7.5992996998
  H         5.5120933319        1.0589129865        7.6457075395
  C         7.7893245845        1.9518797433        8.6893932910
  H         6.8537925560        3.4281507354        7.5562008622
  H         6.3229706365        3.4846140639        9.2416253701
  C         9.0450724981        2.8922452140        9.0384422919
  H         7.9968886023        1.2861298925        7.8211647283
  H         7.5043884713        1.1569427164        9.4177998171
  C         8.7902901637        4.1929735092        9.8100459786
  C         9.4846335264        3.5969454500        7.8232113397
  C        10.1698127177        1.9659256032        9.5802968175
  C         8.9250317199        5.3367396674        9.0565084220
  C         8.3243687700        4.5375178304       11.1211764890
  C         9.3916105851        4.9443523890        7.8057208816
  C         9.8941657403        3.0456280156        6.6564713076
  H         9.8610594951        1.7173604592       10.5422070603
  H        10.3737037106        1.0438280070        9.0350141848
  C        11.4882219533        2.8283769065        9.8471993735
  S         8.7821480696        6.8376488648        9.8772312746
  C         8.2391194299        5.9304925302       11.3135120166
  H         8.1332894424        3.7475149975       11.8209042839
  C         9.7921790821        5.6102195995        6.6334724028
  H         9.8596515712        1.9825789513        6.6258317554
  C        10.2635743443        3.7361237063        5.5150756916
  H        11.1317780389        3.7398163671       10.3453012827
  H        11.9325005481        3.1516770978        8.9049282977
  C        12.6514369150        2.2204803127       10.5605343395
  C         7.7645896417        6.6389045891       12.5607157047
  C        10.3125475248        5.0837384972        5.4633409268
  H         9.8216007887        6.6604054975        6.5981624401
  C        10.6885240892        3.4578558785        4.2965226216
  H        13.5204694898        2.8535055606       10.3204987569
  H        12.8936329807        1.2546122474       10.0294471600
  C        12.5453820730        2.0023572803       12.1124893573
  C         7.7459331030        8.0395391625       12.8095596797
  C         7.2290730910        5.8283390007       13.7011084642
  C        10.8140334476        5.8473734295        4.2504233605
  C        11.0200958108        4.5337000327        3.5221199884
  S        10.9529572388        1.9352086337        3.5835467083
  H        11.7439613322        1.2899567305       12.4382698069
  H        13.4654392589        1.4738801365       12.5231839957
  C        12.5350671813        3.3649331872       12.8554406332
  N         8.1234565910        8.9924863534       11.8632733295
  C         7.4277718966        8.5944450113       14.0322850279
  C         6.8276540216        6.3840388081       14.9025974892
  H         7.1523566458        4.8094118841       13.4889042902
  C        11.9968895440        6.8277150501        4.5495591359
  C         9.5876294444        6.6946825837        3.6127869810
  C        11.4936082674        4.0405015213        2.2462326202
  C        11.4485622658        2.6850853907        2.1137678949
  H        11.7791588754        4.0876904129       12.4473745840
  H        13.4640721071        3.8966019549       12.8174087628
  C        12.1156051004        3.1085863596       14.2632702358
  S         7.8492353219       10.4390908742       12.5039678841
  N         7.5633479309        9.9736938118       14.0068054573
  C         7.1084895391        7.7806691879       15.1593979988
  H         6.4649599052        5.6955454875       15.6885921812
  H        11.5358632157        7.7231018116        5.0379863455
  H        12.4122002450        7.1066872521        3.6504207305
  C        13.0115295337        6.1722536363        5.4937995403
  H         9.3306700506        7.6578960141        4.1383086184
  H        10.0514680047        6.9623809889        2.6117502198
  C         8.2955577199        5.8905271939        3.4085576070
  H        11.8214035411        4.6862881618        1.4448318007
  C        11.8089118211        1.9074102196        0.8711005163
  H        12.3720960740        4.0301396879       14.7214389495
  H        11.0572760520        3.0383566794       14.3538000279
  C        12.7047197633        1.8615830646       14.9916366706
  C         6.8842691068        8.5183231916       16.3448414143
  H        12.6702714154        6.3930992682        6.4705027065
  H        13.0277509887        5.1122651242        5.3674255363
  C        14.5293147528        6.5021942729        5.2345723740
  H         7.6755961368        5.8504992715        4.3019195404
  H         8.4956848579        4.8392859851        3.1067557574
  C         7.4415004445        6.4314945298        2.2033567162
  C        11.8859101219        0.5235846951        0.6872225156
  C        12.0980714153        2.6703369515       -0.4125557331
  H        13.6718069326        1.6407087955       14.5335640635
  H        11.9873935460        0.9756019960       14.8072046156
  C        12.9486562767        2.2604695307       16.5012091793
  H         7.0724918071        9.5641492953       16.3219150196
  C         6.5259120253        8.0831818438       17.6193573135
  H        14.6874373395        7.5634272796        5.0903302358
  H        14.7170725309        5.9791073299        4.3521052525
  C        15.4366127220        6.0232886884        6.3403316900
  H         7.6575662734        7.4684070448        2.0886407466
  H         7.8015911286        5.8955127040        1.3534125302
  C         5.9172271697        6.3436010529        2.3859058681
  N        11.5315768778       -0.3533075502        1.7142919274
  C        12.2239051837       -0.1442830154       -0.4519718494
  C        12.4079785424        1.9731947536       -1.6254886289
  H        12.0640420153        3.7247410447       -0.4591906835
  H        12.0300518897        2.4120379033       17.0357859461
  H        13.5421803770        3.1450902382       16.6249726099
  H        13.4215026990        1.4131764081       16.9748792230
  S         6.2866250647        6.4723271536       18.1162867872
  C         6.4328145560        9.0885677569       18.7361830241
  H        15.9308833050        6.8672715607        6.7060579013
  H        14.8954523461        5.5182014250        7.1850613156
  C        16.5511975483        5.1139437813        5.9107750622
  H         5.5792847955        5.5037049382        2.9192944553
  H         5.4702319911        6.2068456210        1.4427900080
  C         5.4316470244        7.5704213600        3.0993747749
  S        11.7909217266       -1.8698938865        1.2097777302
  N        12.2419422939       -1.5635741338       -0.3170468865
  C        12.5113607873        0.5264136338       -1.6782221832
  H        12.5099638304        2.5130234060       -2.5626842529
  C         6.0789598157        7.0920395153       19.6911374589
  N         6.2140402189        8.4124990134       19.8656541366
  O         6.5052968840       10.2955376812       18.5613122401
  H        16.2001990277        4.2252156099        5.4161665542
  H        17.1315186393        5.5462610388        5.1752631423
  C        17.5152135265        4.6756426131        7.0168525258
  H         4.4505778509        7.4145370766        3.5441900089
  H         6.1308915148        7.7111349117        4.0521709252
  C         5.2858613642        8.7432838800        2.1428860807
  C        12.9235265048       -0.2788528147       -2.8222013126
  S         5.5556767507        6.0925730143       21.0671870943
  C         6.0458696367        9.0533695113       21.1353747438
  H        16.9089297807        4.6023813530        7.8838957550
  H        17.9303343677        3.7239526444        6.8849509912
  C        18.6807996513        5.6681832707        7.3821135275
  H         5.9050021874        8.5478513247        1.2443312942
  H         5.6834091783        9.6567440612        2.5249034375
  C         3.8093334856        8.9849302919        1.6704611831
  H        12.9547902644       -1.3356055113       -2.7226777832
  C        13.2980969865        0.0892609216       -4.0594531572
  H         5.1204485777        8.7198968394       21.6272604918
  H         5.7957239720       10.0999030996       20.8837896879
  C         7.1517041800        8.9050027749       22.1030237876
  H        18.8703958190        5.6415335072        8.3998572142
  H        18.5127642710        6.7491620911        7.1283436981
  C        19.8608676997        5.1794256035        6.6002467415
  H         3.3840168262        8.0673765660        1.2555544633
  H         3.1705027048        9.2250764548        2.5610747474
  C         3.5865767722        9.8904937793        0.4661794789
  S        13.6321622520        1.6431885010       -4.6691312275
  C        13.6063853784       -1.0133832797       -4.9673488416
  H         7.0302033299        9.4585327013       22.9985022753
  H         7.9182323459        9.3794798580       21.5067446471
  H         7.6602365687        7.9930125065       22.1969688152
  H        20.8397417421        5.5091899982        7.0208988031
  H        19.9696317338        4.0786494597        6.7642340450
  H        19.8675417150        5.4114990394        5.4961030987
  H         2.6051256918       10.2907769137        0.4361737699
  H         4.3332074383       10.6833235292        0.4374158136
  H         3.8915863601        9.2961846819       -0.3783542737
  C        14.2189523283        0.8939845472       -6.1444538502
  N        14.0768742007       -0.4748066597       -6.1044988219
  O        13.3795941343       -2.1805257114       -4.7851268552
  S        14.8855349611        1.8040761844       -7.5169265322
  C        14.4151718528       -1.3508286636       -7.1733764816
  H        14.6002369258       -2.3598191549       -6.9631448904
  H        15.2238687953       -1.0156268262       -7.7931165476
  C        13.0921191179       -1.2404484077       -8.0378046693
  H        12.2937755569       -0.8073960962       -7.5150784305
  H        12.7459832658       -2.1997377768       -8.5089230163
  H        13.3496485537       -0.7327421310       -8.9502377746
