352
 i =    33900, time =    16950.000, E =        97.6053303827
  H        10.7154128560        4.7878778230       32.1271923015
  C        10.7264749976        5.8519388328       32.3103684650
  H         9.6711125980        6.0768289585       32.4559562295
  C        11.4192437335        6.6619678525       31.2339892447
  C        11.2421171603        5.8094392606       33.7958817447
  C        11.6331534919        5.9972854219       29.8755797713
  H        10.7445487077        7.4989002879       31.1477138776
  H        12.4618366669        6.9814104819       31.5551295258
  H        10.4952292176        5.9748146694       34.4789364934
  H        11.5922210402        4.7684360154       33.9411878520
  H        12.0712494974        6.5228491749       33.9095348860
  C        10.3561123620        5.8067096440       29.1351794646
  H        12.1831003075        4.9529516551       29.8833405530
  H        12.2620988406        6.6730310821       29.2600635759
  C        10.5295396341        5.8121581341       27.6435887064
  H         9.9586521535        4.8737407231       29.5755567936
  H         9.7796114486        6.7361218307       29.4154849336
  C         9.5158016517        4.8542652746       26.8133223582
  H        11.5618706628        5.5594037579       27.4389748248
  H        10.6182302541        6.8248036556       27.3140873963
  C         8.2174129354        5.4738388938       26.5657026036
  H         9.9842111293        4.6679431953       25.8083662049
  H         9.5082997560        3.8630062650       27.2107352127
  C         7.1363167733        4.6937624108       25.8137219142
  H         7.6835479837        5.8156563248       27.5177724467
  H         8.3870860009        6.4101953483       26.0884947285
  C         6.8168545632        3.3664042223       26.5283452218
  C         7.5647850537        4.0704063669       24.5750843501
  C         5.8879162908        5.5736209718       25.6460333295
  C         7.1024251345        2.3119551652       25.7106029800
  C         6.3741467854        3.0782959239       27.8538837703
  C         7.5235267715        2.7691558095       24.4806051138
  C         7.9755580838        4.7530926803       23.4159065430
  H         6.0835047016        6.3019979753       24.8478064153
  H         5.7701374213        6.1480614836       26.4993283617
  C         4.6859651434        4.6868389836       25.1447528756
  S         6.8282504992        0.8474851492       26.5814399410
  C         6.3003061605        1.7381614052       27.9857853179
  H         6.1565963248        3.8257459247       28.5928245378
  C         7.9454083357        2.1626004748       23.2948397087
  H         7.8028155929        5.8131963400       23.5062253092
  C         8.3416571740        4.1698099673       22.2550383302
  H         4.8652579741        4.2777960007       24.1937036891
  H         4.4849189871        3.8739261047       25.8146954892
  C         3.3617164287        5.4080379070       24.9690203481
  C         5.8635463805        1.0421369891       29.2524198987
  C         8.2782452804        2.8208222314       22.1124929332
  H         7.8766378284        1.0498710758       23.2210397642
  C         8.7925417835        4.6017367601       21.0472421744
  H         2.6438039217        4.9337535808       24.2651295393
  H         3.4967662052        6.3932829673       24.5606254523
  C         2.7001198750        5.6891502584       26.3687562904
  C         5.9857732539       -0.3379416394       29.5329313031
  C         5.4619771208        1.8864664284       30.4339695529
  C         8.7607967737        2.1318116113       20.8697023189
  C         9.1208409556        3.5541941246       20.2167059783
  S         9.1445434346        6.1217008170       20.3318569254
  H         1.9829211137        6.4369784755       26.1453481314
  H         3.2928965166        6.2042739952       27.1300109614
  C         2.0070674042        4.5086585143       27.1214362909
  N         6.4185726422       -1.3386160843       28.6025557372
  C         5.7061641003       -0.8527291639       30.8039832809
  C         5.2302495072        1.3919441322       31.6959913910
  H         5.2194305996        2.8629536284       30.2912521049
  C         7.7235006376        1.3328016019       20.0309743231
  C        10.0830983092        1.3372848959       20.9577831240
  C         9.5367501218        3.9687151627       18.9831062782
  C         9.5030693424        5.3336277851       18.8423650570
  H         1.2291643061        4.1014789278       26.4870361176
  H         2.7888604240        3.7396312073       27.2483062799
  C         1.3679179269        4.8821249303       28.4466201339
  S         6.2691365663       -2.7660217042       29.3702644569
  N         5.7617753899       -2.2611406069       30.8549790184
  C         5.3914250407       -0.0752450628       31.9574921940
  H         4.8283054054        1.9876393175       32.4856539586
  H         7.6094531847        0.2507359574       20.2486514493
  H         7.9072178988        1.3337637091       18.9561428679
  C         6.3343194334        1.9374590508       19.9495870504
  H        10.3837882417        0.9644056569       19.9895771254
  H         9.9247203031        0.4099602841       21.5718583529
  C        11.1959934677        2.2413330013       21.4783609186
  H         9.7942088936        3.2775703405       18.2329712544
  C         9.7682525965        6.1212980598       17.6170740621
  H         0.6600407555        4.1385430526       28.7661022354
  H         0.7461336210        5.7248530843       28.3446254895
  C         2.2967148396        5.2681067414       29.6390319669
  C         5.1606986714       -0.6731196578       33.2333013918
  H         6.3077865314        3.0036089764       20.2116692332
  H         5.8553856448        1.4677353307       20.7879261937
  C         5.5816558317        1.6187679625       18.6771060910
  H        10.8698060070        2.6979627226       22.4197251664
  H        11.3986932194        3.1283862782       20.8320256742
  C        12.5086157968        1.6097545449       21.7721369230
  C         9.7944278371        7.5225831474       17.4406700498
  C        10.0425085752        5.3322759115       16.3864636379
  H         3.1634712038        4.7159155376       29.5139709771
  H         2.4454035594        6.3253278695       29.5398927051
  C         1.5467400673        5.1163113076       30.9692397083
  H         5.2214541242       -1.8016412988       33.2282977680
  C         4.7806132655       -0.1788015750       34.4468140461
  H         5.6438646694        0.6049791299       18.3506124033
  H         6.0160369251        2.1837273446       17.8014455603
  C         4.0470225789        1.8520029823       18.6588766664
  H        12.3272298331        0.8037890592       22.5042925513
  H        12.9456458298        1.0318280004       20.9971878049
  C        13.6032834242        2.5322968355       22.2127960677
  N         9.5541496633        8.4173380880       18.4898872187
  C        10.1639034401        8.0737208668       16.2275639141
  C        10.2920803685        5.9087413473       15.1409446818
  H         9.8310984096        4.3133390366       16.4477071825
  H         2.0624879732        4.8129325921       31.8445134617
  H         1.1673372144        6.0860480852       31.2733784851
  H         0.7097324026        4.4174026247       30.8208025009
  S         4.4959238732        1.4336612884       34.8527383778
  C         4.7245856468       -1.1864129981       35.5249842202
  H         3.8061777189        2.6413777257       19.3353138770
  H         3.5778518526        2.1883383349       17.7163264939
  C         3.2865238141        0.6825427727       19.1829462469
  H        13.1297747133        3.2317108984       22.9512579711
  H        14.0373434657        3.0922377624       21.4209981868
  C        14.6685890412        1.8201623572       23.0197026355
  S         9.5459848445        9.8700080044       17.7648472267
  N        10.0872280234        9.4264048424       16.2693531433
  C        10.4809264681        7.3791417802       15.0746484503
  H        10.3229386176        5.2157238894       14.3249818736
  C         4.1637587660        0.7838155904       36.4587253663
  N         4.3807494841       -0.5514100576       36.6171034137
  O         5.0846890282       -2.3790985058       35.4014030988
  H         2.4801195860        1.0834739942       19.7706074847
  H         3.8511775525        0.1285986201       19.8530591340
  C         2.8243948644       -0.3806785356       18.0646229678
  H        14.0752277123        1.6284155659       23.8802960244
  H        14.8958956044        0.8166885473       22.5463164353
  C        15.8077921309        2.6683033541       23.4205276853
  C        10.6871733650        8.1295543989       13.8571692290
  S         3.3994159103        1.6383545970       37.7450569154
  C         4.3583536228       -1.2528896013       37.8622869194
  H         2.1660499889        0.0094864087       17.2617212002
  H         3.6626515974       -0.8412540198       17.6764781605
  C         1.8735032850       -1.4147021380       18.7364291498
  H        15.6546091685        3.0720980228       24.3960468142
  H        15.9291491996        3.4820251208       22.6604030594
  C        17.0370357971        1.8650096510       23.5759879038
  H        10.6289583110        9.1844069419       13.9390342793
  C        10.9965101169        7.7702756342       12.5733439563
  H         3.6605589050       -0.8055305439       38.5230230005
  H         3.8639303535       -2.1499961688       37.7199189733
  C         5.6968180479       -1.2883981405       38.4330997687
  H         1.0489935558       -0.8519066983       19.0959216704
  H         2.3579702817       -1.7810132147       19.6328218368
  C         1.5316579161       -2.5286128957       17.7719119973
  H        17.7977424990        2.3862527633       24.1843383012
  H        16.7124741816        0.9683242659       24.1350401392
  C        17.6211893591        1.5315840493       22.2038867226
  S        11.4464224157        6.2010059348       12.1136350961
  C        11.1787591949        8.8305610026       11.5391861967
  H         5.6662309392       -1.6178435846       39.4801658058
  H         6.3637503100       -1.9155377026       37.8378616255
  H         6.0941823536       -0.3075269655       38.4297410852
  H         0.9463710092       -2.0573049076       16.9205747373
  H         0.9125430612       -3.2805280221       18.1864575349
  H         2.4309813470       -3.0894972421       17.4609117244
  H        18.7113133011        1.3739243122       22.4520660094
  H        17.5447604683        2.3795882121       21.6004443717
  H        17.2011407792        0.5913912102       21.7840939563
  C        11.8641991820        6.9192041488       10.4752528704
  N        11.6642879806        8.2848563048       10.4145759248
  O        10.8819438000       10.0092830794       11.7269770613
  S        12.9048801894        6.2084818583        9.2481176754
  C        12.0031302713        9.1564351274        9.2653256714
  H        11.7794406919       10.2011276809        9.6646479179
  H        13.0814133562        9.1735934618        8.9780358501
  C        11.1160132926        8.9717933043        8.0725733069
  H        10.1071465732        8.8917042053        8.5029786468
  H        11.1235423752        9.8581117163        7.4683982312
  H        11.4460280100        8.0628955401        7.5433021149
  H         2.6100121472        1.7853666327       13.6969790795
  C         3.3475100142        1.7117059491       12.8774670174
  H         3.4534322257        0.6714702547       12.6779745412
  C         2.8019316140        2.3069211952       11.5473093516
  C         4.6263983527        2.3965478658       13.4554525429
  C         3.8511737541        2.3205169414       10.4285712939
  H         2.7092974096        3.3466454487       11.8627591212
  H         1.9067648698        1.7525565659       11.1614343482
  H         4.9225422810        2.0893248207       14.4547093783
  H         4.4201465797        3.4710765604       13.4118817846
  H         5.5175399837        2.1447366077       12.8328474974
  C         4.4800560723        1.0154081476        9.9540463933
  H         3.4625148237        2.7436977104        9.5801943849
  H         4.6565755940        2.9099775559       10.9428855303
  C         5.2242051916        1.1463844948        8.5785626676
  H         3.7128987180        0.2557334165        9.9072903395
  H         5.2356033061        0.7052710425       10.7276454983
  C         6.4643822690        2.0647258883        8.6700170742
  H         4.5062109279        1.5060867431        7.8454720695
  H         5.5260510167        0.1693261386        8.2280708304
  C         7.6395065325        1.3531129654        9.2461337828
  H         6.6228015805        2.5283204241        7.7308313392
  H         6.2125867834        2.8957199884        9.3987660841
  C         8.8925169303        2.2055354099        9.4472903265
  H         7.9389076799        0.7387075007        8.4204674406
  H         7.3656665254        0.8921027611       10.1780334192
  C         8.5664640211        3.4794688743       10.1720456466
  C         9.3074077451        2.9749356318        8.1935564179
  C        10.1198513100        1.4252608341       10.0498170816
  C         8.7491942218        4.5906513088        9.3892751770
  C         8.0016396064        3.8683355984       11.3886117768
  C         9.3032667348        4.3141921176        8.1405949520
  C         9.8126815655        2.3287061861        7.0580560475
  H         9.6990879406        0.7381981635       10.7791339691
  H        10.5651534832        0.7902195190        9.2597174009
  C        11.2802699948        2.2631467556       10.6533197979
  S         8.5345092023        6.0579036463       10.1623988746
  C         7.9303212277        5.2282479958       11.5254933274
  H         7.9429863143        3.1615945461       12.1571885322
  C         9.7135069509        4.9702126544        6.9939010233
  H         9.9175718139        1.3055530928        7.1097305511
  C        10.1238912816        2.9744543152        5.8803597864
  H        10.8341158001        3.1617784771       11.0609651097
  H        11.9385907328        2.7359616814        9.8936173971
  C        12.0348765169        1.4677681641       11.7713240502
  C         7.5476590691        5.8751501631       12.8005194662
  C        10.0408199830        4.3407291648        5.7840455382
  H         9.7207551508        6.0133946835        6.9821603785
  C        10.6130479052        2.6477160503        4.6439240355
  H        13.0217635087        1.3446797249       11.3422482703
  H        11.5506035866        0.5569770389       11.9680776590
  C        12.1265918344        2.2405015772       13.1041102239
  C         7.4719551917        7.2402243484       13.0199058613
  C         7.2428236509        5.0644223795       13.9743352834
  C        10.4914968558        5.0698646615        4.6604378812
  C        10.8041721688        3.7907934199        3.8759411344
  S        11.0736452413        1.2307875549        3.8854218914
  H        12.2389463298        3.2982639966       12.9360334829
  H        11.2193594349        2.0682491993       13.6269303900
  C        13.2949922074        1.6786315072       13.8597454187
  N         7.6855306403        8.2641766983       12.0510600233
  C         7.1696160184        7.8199667115       14.2267343067
  C         6.9641596228        5.6237047603       15.2468443228
  H         7.0383507224        4.0469554896       13.7440335391
  C        11.8730696200        5.8656670752        4.8333240069
  C         9.4190734198        5.9095770736        3.9641921209
  C        11.1402468854        3.4487391047        2.5526338850
  C        11.3278335939        2.1193913383        2.4246445001
  H        14.0948684790        2.5083213029       13.9644263549
  H        13.7492701517        0.7849584867       13.3190839751
  C        12.9269487959        1.0830801519       15.2010344718
  S         7.4292206799        9.7340116296       12.7165493084
  N         7.0775297872        9.2194678288       14.2079553397
  C         6.8709736783        7.0823075789       15.4035016927
  H         6.8287544761        5.0154941838       16.1370363979
  H        11.6303110174        6.6601015521        5.4661859601
  H        12.1669365533        6.2147446021        3.8338039588
  C        13.0346939281        5.0666155024        5.3842364197
  H         9.1641379459        6.6800940248        4.5643474169
  H         9.7667080049        6.3892561331        3.0000399771
  C         8.1234608977        5.2263340310        3.5909286482
  H        11.2067755887        4.2180179412        1.8276411338
  C        11.6599029594        1.4061008910        1.1226259032
  H        12.0202795732        0.4661449769       15.2509169050
  H        13.7322876602        0.4064924389       15.5454847343
  C        12.5952944414        2.1583901438       16.2540299152
  C         6.5927507065        7.7653926427       16.6425305706
  H        12.8142156366        4.6335871600        6.3398960241
  H        13.3113465352        4.2667542569        4.6230367268
  C        14.3321815453        5.8087875188        5.5685845781
  H         7.4758088297        5.1882872779        4.4503254638
  H         8.2618220802        4.1583622501        3.3468872878
  C         7.2557996633        6.1043341048        2.6021554911
  C        11.7705772762        0.0185969676        0.9774086267
  C        11.7716015322        2.2240984179       -0.0683994528
  H        12.1805616076        3.0086739659       15.7199291514
  H        13.5703535912        2.4931523496       16.6677090818
  C        11.7676849768        1.4860905613       17.3161783934
  H         6.7803667551        8.8453037551       16.5118262548
  C         6.2689607362        7.3260314692       17.9728630751
  H        14.1816012560        6.6420106163        6.2472627759
  H        14.6710565816        6.2209015111        4.6556243411
  C        15.3836374374        4.9303751158        6.2706190923
  H         7.7409247414        7.0458962992        2.2894885283
  H         7.2318152444        5.6271977398        1.6129978398
  C         5.8437529312        6.3408580659        3.0217583712
  N        11.5239066252       -0.9428956453        1.9625281831
  C        12.1797968670       -0.5686865244       -0.2332721623
  C        12.1035282144        1.5857206035       -1.2227956774
  H        11.7457592842        3.3113810825       -0.1314577040
  H        11.8495226798        2.0876642629       18.3363501938
  H        12.2792326926        0.5280582768       17.4641759194
  H        10.7811550903        1.1968058826       17.0071086493
  S         5.9964119363        5.7023765867       18.4979755674
  C         6.0937753935        8.4216091857       18.9464594768
  H        14.8232745086        4.3378737046        7.0510779083
  H        15.8650701154        4.3524799517        5.5223999268
  C        16.4228824785        5.8237771143        6.9506278750
  H         5.9500494162        6.9347998171        3.9864786159
  H         5.4010392235        5.3595237279        3.2086320647
  C         5.1263915984        7.2919634192        2.0696563212
  S        11.7582248291       -2.3739975589        1.2946213191
  N        12.2896540305       -1.9562788702       -0.1428129886
  C        12.4021978606        0.1218343456       -1.3639492970
  H        12.2547828226        2.2713375464       -2.0604150604
  C         5.5043931148        6.4758328011       20.0154218414
  N         5.7140409372        7.8139398254       20.1284812640
  O         6.2194374887        9.5895981477       18.6548687580
  H        16.7515971217        6.5525498965        6.1727745913
  H        15.9431460647        6.3269411299        7.7980011074
  C        17.5669963377        4.9378184080        7.4731317526
  H         5.6795290128        8.1484129519        1.8196478745
  H         4.9804902854        6.7323589891        1.1676485263
  C         3.7418199015        7.7225183641        2.6099227713
  C        12.7929346283       -0.6288352729       -2.5512042885
  S         5.2698546884        5.5942403776       21.4925293993
  C         5.7334982591        8.4990017930       21.3555198394
  H        17.2842370581        4.3488145637        8.3854961976
  H        17.8328919569        4.1539037489        6.8137142206
  C        18.7981824995        5.7483491401        7.6779464204
  H         3.3438695920        7.1413892756        3.4766702849
  H         2.9773716454        7.5929211568        1.8143207357
  C         3.7622833770        9.1871780100        3.0711690252
  H        12.9134781275       -1.6834876421       -2.3445746195
  C        13.2049440483       -0.3078109701       -3.8524125821
  H         5.1092265286        8.0441772930       22.2000096351
  H         5.2149179035        9.4393135667       21.1512577646
  C         7.1475649864        8.8164466123       21.8086444716
  H        19.2435812011        5.4113053158        8.6178121395
  H        18.5397467984        6.8088081646        7.8340886391
  C        19.7499981564        5.5018972289        6.5820699321
  H         3.1861389241        9.3371450706        4.0219921617
  H         4.7045114588        9.6050725536        3.3707235130
  C         3.1331898611       10.0264237307        2.0541085161
  S        13.4703039702        1.2742292426       -4.3974493524
  C        13.3573832863       -1.4062109326       -4.7976018827
  H         7.1392492560        9.8243412065       22.2642316488
  H         7.9098775294        8.6958192727       21.0250030815
  H         7.3981618774        8.1169617677       22.5607506845
  H        20.3539496883        4.6018959626        6.6755921303
  H        19.2222604918        5.3785358548        5.6207604780
  H        20.2757698118        6.3586107679        6.3825522447
  H         3.5041229666        9.5907291133        1.1035120563
  H         2.0298521390        9.9973785921        1.9951444250
  H         3.5238015555       10.9910356889        2.0042272143
  C        13.9663668329        0.5168901671       -5.9111819770
  N        13.8230341046       -0.8338480060       -5.9298996819
  O        13.1251059258       -2.5697707757       -4.5516969520
  S        14.6235291288        1.2586924327       -7.3485377593
  C        13.9788409150       -1.5908056998       -7.1473276665
  H        14.0864486034       -2.6852321257       -6.9301595580
  H        14.7721993370       -1.3006796557       -7.8038869402
  C        12.6496063605       -1.5530319969       -7.8751629670
  H        11.9209013137       -1.0182473293       -7.3716658390
  H        12.2657160296       -2.5311392616       -7.9507997512
  H        12.8550468238       -1.2370184328       -8.8557687505
