352
 i =   126500, time =    63250.000, E =        99.1991485940
  H        10.2227762566        6.0719263730       32.2431672992
  C        11.2370242525        6.1717438292       32.3997343644
  H        11.3474209218        7.2267091408       32.8111753970
  C        11.7729072221        6.1475179577       30.9539112622
  C        11.7963762676        5.0663800584       33.2404381517
  C        10.8619862562        5.2870389441       30.0262314954
  H        11.8593590740        7.1688915732       30.5685061004
  H        12.6795177531        5.5818482815       30.8390531850
  H        11.1148783002        4.2132162865       33.1903794574
  H        12.8564272470        4.8541569647       33.0176952939
  H        11.7382329463        5.3060327571       34.2812510837
  C        11.4361032705        5.2724874091       28.6025917934
  H         9.8428264158        5.6562814779       30.0297203016
  H        10.7669066733        4.2586632983       30.3337304338
  C        10.7631955082        6.0907446442       27.5383561776
  H        12.5224721929        5.4162542105       28.6636226295
  H        11.4671505251        4.1618563605       28.3503037869
  C         9.7496067957        5.2668498920       26.6825739700
  H        11.5464602062        6.4910440339       26.8509227297
  H        10.2568859354        6.8637973970       28.0486801565
  C         8.5704148671        6.1007222982       26.1477062886
  H        10.1442574336        4.8016883887       25.8391583851
  H         9.2818910998        4.4980862210       27.2487649091
  C         7.4356976289        5.3332029346       25.4419989898
  H         8.1076213430        6.6135183926       27.0258109141
  H         8.8711331808        6.9713644392       25.5983097998
  C         7.1033649217        4.0022669914       26.1617036998
  C         7.8335734840        4.6521490887       24.1854566807
  C         6.2253416960        6.2217233395       25.1743948835
  C         7.3765109854        2.9068129124       25.3626818626
  C         6.7488604228        3.6494023069       27.4393181360
  C         7.7999509824        3.3152177326       24.0913016343
  C         8.3758852903        5.2059643212       22.9981018381
  H         6.3938810633        7.0092878211       24.4759809058
  H         5.8332543202        6.5878898148       26.1278928179
  C         5.0303849773        5.4017064545       24.5697301701
  S         7.0498978687        1.3729379247       26.1545550206
  C         6.6490848782        2.3339026379       27.5286562903
  H         6.6789230144        4.3509328521       28.2278015513
  C         8.1241197188        2.6331097735       22.9099217220
  H         8.3937230057        6.2815672556       23.1248775355
  C         8.6587153153        4.5844773903       21.8259585997
  H         5.1898383439        4.9677304537       23.6485741256
  H         4.7445887300        4.5567365276       25.1881307340
  C         3.8176672197        6.3617630256       24.3622725626
  C         6.2332399932        1.6197748517       28.7686152954
  C         8.5515071446        3.2668548295       21.7344229287
  H         7.9886085043        1.5401555569       22.9163550983
  C         9.0493760835        4.9791263489       20.5352936358
  H         3.2242873506        5.7793467308       23.6657423638
  H         4.0592913228        7.3238530957       23.9060122937
  C         3.0389648160        6.6394386310       25.7434780848
  C         6.3333057588        0.2447923687       29.0164714778
  C         5.7834481000        2.5038019491       29.9599200698
  C         8.8431364258        2.5306846306       20.4980220540
  C         9.1775363654        3.8567253885       19.7508613433
  S         9.4175956564        6.4745053346       19.8432398100
  H         2.2151097162        7.2878073684       25.5610023238
  H         3.5930889932        7.1556833239       26.5202771880
  C         2.5123636526        5.3221478124       26.4176464857
  N         6.5748929763       -0.8090801133       28.1557512752
  C         6.0464638999       -0.3085738649       30.2881828292
  C         5.4285913841        1.9651008385       31.1659808842
  H         5.8339694955        3.5609907799       29.8314843498
  C         7.7343515621        1.7106461206       19.8871927212
  C        10.1703615883        1.7829463327       20.6401153992
  C         9.7583482026        4.2636529378       18.5085477872
  C         9.8443256515        5.5986981182       18.3781804367
  H         2.1629178320        4.6269330203       25.6803398440
  H         3.3680063539        4.7804650696       26.7663832392
  C         1.3958444001        5.4667602177       27.4655042908
  S         6.6672626742       -2.2447285277       28.9086264555
  N         6.1304243490       -1.7296825015       30.3947331028
  C         5.5959873675        0.5016152909       31.4074023313
  H         5.2157357465        2.6593485729       32.0054687358
  H         7.5407336205        0.8910798676       20.5786225503
  H         8.0511391571        1.1929421320       19.0253684199
  C         6.4275620255        2.5286255335       19.5953207756
  H        10.2776926419        1.3629567046       19.5944326020
  H        10.1234269547        0.9255537931       21.2552094514
  C        11.4486558491        2.5613275106       20.8873015846
  H        10.0135306747        3.3901014156       17.8490483503
  C        10.2473090193        6.4225618672       17.1664570518
  H         0.6420639262        4.6971358501       27.3382024045
  H         0.8797656478        6.3919991842       27.3040319335
  C         1.7872703805        5.3812701997       28.9004922326
  C         5.3499260192       -0.2023276525       32.5975688980
  H         6.6649720933        3.3589029747       18.8479541956
  H         6.1842331065        3.0830998142       20.4912251777
  C         5.2086665036        1.7460867815       19.0645399021
  H        11.2358675271        3.3282941679       21.6702415283
  H        11.8542417388        3.0624573215       20.0235118541
  C        12.6070745897        1.6651035838       21.2747286706
  C        10.2751442851        7.7987965703       17.0298331306
  C        10.4810970932        5.6146034956       15.9345821665
  H         1.4998654813        6.2303144220       29.4023882851
  H         1.2442260366        4.5104005067       29.2231521767
  C         3.2653212133        5.1652371240       29.2056632700
  H         5.5002908563       -1.2068199508       32.5768752120
  C         5.0185526203        0.1693564821       33.8641462263
  H         4.6153207433        1.3414331824       19.9217199729
  H         5.3845998117        0.8680836577       18.4191568799
  C         4.2327651324        2.6890464076       18.2970422128
  H        12.1741087383        0.8551697604       21.8149620335
  H        13.0611840897        1.2708192256       20.3484075143
  C        13.6877662452        2.4196992011       22.0651557107
  N         9.9204288430        8.7500682237       17.9530861979
  C        10.5563774123        8.3918300105       15.8543199592
  C        10.8363254585        6.1966602299       14.7051534114
  H        10.4101258559        4.5413796141       15.8723089584
  H         3.4696300044        4.1214909954       28.8216485758
  H         3.8546074222        5.9417426739       28.7308295792
  H         3.5028525198        5.1027541374       30.2391699363
  S         4.7296562165        1.7612950219       34.4314718507
  C         5.0397412954       -0.9047602500       34.9206043935
  H         3.9879297720        3.6014705138       18.8681321064
  H         4.4810371137        3.0114547355       17.2369902569
  C         2.9645283581        1.8767172768       18.0207977361
  H        13.3635088582        2.6924761950       23.1435665342
  H        13.6802913861        3.3673913560       21.5577147456
  C        15.1017544653        1.7972359047       21.9072655774
  S        10.2286344491       10.1994859330       17.3677471988
  N        10.5879804190        9.7837525904       15.9038149443
  C        10.8997312611        7.6984420703       14.6757696625
  H        11.0666431822        5.5677152472       13.8477098401
  C         4.5398003962        0.9963082421       36.0608380064
  N         4.5541992616       -0.3585695931       36.0773426561
  O         5.1729964002       -2.0908635677       34.6917471594
  H         2.3114122856        2.5750802318       17.5200862092
  H         2.4088172935        1.6416669103       18.8999553135
  C         3.1565859027        0.6543829428       17.0854881895
  H        15.1033307955        0.8417492262       22.3725784557
  H        15.1744528439        1.7506696894       20.8699094014
  C        16.1420059093        2.6796538007       22.5295778944
  C        11.2822932385        8.4185865595       13.4817854598
  S         4.0275710282        1.8751507444       37.4631489528
  C         4.4795977871       -1.1049521503       37.3241463136
  H         2.3408882618        0.6059196628       16.2942690291
  H         4.0908715166        0.7476512895       16.5479205038
  C         3.0030745876       -0.6536007800       17.8744183103
  H        15.7086157457        2.9996933876       23.4963112344
  H        16.2604640633        3.5272528412       21.9379545452
  C        17.5476764246        2.0814222722       22.7035337815
  H        11.0089610928        9.4697346297       13.4777677882
  C        11.7988706848        8.0719472171       12.2759276998
  H         3.7116036654       -0.7452226480       37.9623826004
  H         4.2564443976       -2.1461735306       37.2733202920
  C         5.9153156417       -1.1739309094       37.9507755489
  H         3.6584775501       -0.7373278256       18.7581218147
  H         3.3914090784       -1.4340426657       17.1949410516
  C         1.6203008612       -0.9790730955       18.2078706758
  H        17.6049542381        1.3597579869       21.9386415650
  H        18.2790967183        2.8112164229       22.3303407764
  C        17.9240375226        1.5001825915       24.1238731656
  S        12.2378773854        6.4925702450       11.6559761222
  C        11.9893266981        9.2192532892       11.3403780052
  H         6.5760857559       -1.4727183790       37.1639663356
  H         6.2488198538       -0.1896710399       38.3546036275
  H         5.9271137169       -1.9476849028       38.7381430854
  H         0.8595300344       -0.2993784540       17.8986707946
  H         1.4160781507       -1.1174724083       19.2731243418
  H         1.2346120374       -1.8876417193       17.6933208826
  H        17.2810963160        0.6816876642       24.3591480251
  H        17.7018538933        2.2209251692       24.8681585863
  H        18.9258969569        1.1403619793       23.9903170897
  C        12.6256492754        7.3640895392       10.2439412807
  N        12.3795183749        8.6866976408       10.1635161980
  O        11.8019307486       10.3952529752       11.6277932563
  S        13.3489307019        6.6244201960        8.7940397145
  C        12.5759191541        9.5717632434        9.0229191760
  H        12.8343814078       10.6186304561        9.3161193458
  H        13.5333702042        9.2272778358        8.4521362502
  C        11.4049966541        9.4839112669        8.0240537730
  H        11.0513981217        8.4663931668        7.9452666683
  H        10.6256776382       10.1651586692        8.3825577961
  H        11.7754612307        9.8098150863        7.0682510754
  H         3.3125218068        3.8243445055       12.9109350949
  C         3.5154155540        2.7162315258       12.7517447713
  H         2.9662849594        2.1882751296       13.6003709771
  C         2.9697944080        2.2940799841       11.3495957488
  C         5.0034007528        2.5414889649       12.9400588447
  C         3.9006031642        2.5618785098       10.1556916811
  H         2.0968187265        2.9171147715       11.1137823223
  H         2.5982341498        1.2967871778       11.3776013248
  H         5.2643921422        2.9535278241       13.9124181936
  H         5.7213055169        3.0418881530       12.2054851576
  H         5.3266626652        1.4961321902       12.8889551468
  C         4.7772534276        1.4839165178        9.5699151308
  H         3.2690877610        2.9949864697        9.3550910247
  H         4.4850148387        3.4549603100       10.3369831428
  C         5.4675855965        2.0176549764        8.2957092455
  H         4.2549201617        0.6007978517        9.2990118314
  H         5.4346933483        1.2276690557       10.3547127331
  C         6.6671638398        2.9335555323        8.5450534626
  H         4.8343529694        2.7291971933        7.7300727863
  H         5.7187666450        1.2342233410        7.5759630505
  C         7.9197358917        2.1488376297        9.0188261033
  H         6.9601597976        3.4632125780        7.6570229958
  H         6.3933594861        3.7791883984        9.3132497525
  C         9.2253624676        2.9671965348        9.1690689862
  H         8.1263393735        1.3832772709        8.2747301847
  H         7.7556150673        1.5288995186        9.8665514404
  C         8.9837912365        4.2702288057        9.8268284370
  C         9.7275425209        3.6234807059        7.9230329202
  C        10.3787962283        2.1448709953        9.8728563356
  C         9.2035674285        5.3980931778        9.0456934453
  C         8.4373195027        4.6284880944       11.0641459925
  C         9.7162538093        4.9935698054        7.8543275736
  C        10.3241396890        2.9829575769        6.8422650810
  H         9.9019106263        1.6042449003       10.7174586080
  H        10.7375661249        1.4362137794        9.1978475820
  C        11.5705406854        3.0023513782       10.2200411981
  S         8.9387215088        6.8450887296        9.8135285029
  C         8.3454282174        6.0032777409       11.1965582169
  H         8.3340646159        3.8685816455       11.8607374337
  C        10.1340895273        5.5683850443        6.6885668088
  H        10.3050835926        1.9419998357        6.9321198596
  C        10.7626974860        3.6026791776        5.7576232556
  H        11.3088614353        3.9208762968       10.7521105859
  H        11.9495895320        3.2706340164        9.2165707633
  C        12.5463180290        2.3655780652       11.1284197469
  C         8.1133977426        6.6836562134       12.5201692763
  C        10.6780676550        4.9254774780        5.5754708706
  H         9.9479500933        6.6371774759        6.6645313204
  C        11.0572399997        3.1199250318        4.4877152249
  H        13.3861782794        3.0147595431       11.0754401990
  H        12.8959134700        1.3647737569       10.8430217606
  C        12.1533515091        2.3658626339       12.6077478161
  C         8.0120657042        8.0592000291       12.7485895844
  C         7.7161949768        5.7430104513       13.6606362413
  C        11.0342952843        5.5299982600        4.2791652655
  C        11.2311670634        4.1571972674        3.5817233410
  S        11.3436126545        1.5467992866        3.8040984331
  H        11.5318939212        3.2579696270       12.8536384937
  H        11.4832097951        1.5640926420       12.7831608391
  C        13.2964827493        2.1761071266       13.6301306781
  N         8.1780798599        8.9639185249       11.7376476087
  C         7.6968241279        8.5976028486       13.9395543599
  C         7.4624064231        6.3259225574       14.9088758531
  H         7.6904731457        4.6973327278       13.6484510050
  C        12.3438103793        6.3695909853        4.5211270293
  C        10.0239464421        6.3076426457        3.5537871555
  C        11.5212442017        3.6927183956        2.2709959150
  C        11.6470159683        2.2882029641        2.2985262706
  H        13.8884783291        3.0966483096       13.5547307615
  H        13.9656433626        1.4045672232       13.3162561121
  C        12.7337401662        1.8655310272       14.9885653303
  S         8.0917263385       10.4950069773       12.3681859316
  N         7.6065423988       10.0321454933       13.9152139963
  C         7.4504843192        7.7904234104       15.0389919892
  H         7.2210366064        5.7160175542       15.7525826011
  H        12.0868074326        7.2049072538        5.1854381975
  H        12.6779346937        6.9232214578        3.6238862218
  C        13.4685761858        5.4664822800        5.0702410288
  H         9.7360766366        7.0300178281        4.3252333802
  H        10.4945516596        6.7331842981        2.6759624739
  C         8.6947205529        5.5206140234        3.1132806639
  H        11.5431443612        4.3994098157        1.4219920188
  C        12.0125323243        1.4366028349        1.0964647560
  H        11.8342831504        2.4140301332       15.2461150074
  H        12.4978967958        0.8193859337       14.9906631701
  C        13.7408572083        2.3055238969       16.0484619647
  C         7.2469738397        8.4501639498       16.2511801955
  H        13.2169756784        4.9103501181        6.0152789053
  H        13.6656265568        4.6535897602        4.3969720486
  C        14.7573190289        6.2154838860        5.2339411082
  H         8.2861238668        5.1757588063        4.0549771042
  H         8.8459546577        4.6681014698        2.4480948050
  C         7.5928362708        6.3417729851        2.4853575035
  C        11.9329517447       -0.0078366974        1.0200018044
  C        12.2402536959        2.1015654322       -0.2058941093
  H        14.2961356709        3.1390575845       15.7101428775
  H        14.5054663011        1.5502778324       16.2479440971
  C        13.0933302732        2.7237538462       17.4110140384
  H         7.5881377895        9.4325479910       16.3025541844
  C         6.9109508426        7.9952664426       17.5150024038
  H        14.6907576887        7.1907066220        5.7206678615
  H        15.1905947923        6.3918811579        4.2307393530
  C        15.7126042028        5.4355616848        6.1479145476
  H         7.1271433149        6.8572742177        3.3392836517
  H         7.9898274462        7.0384242093        1.7883825470
  C         6.4849369209        5.5573194919        1.7741957372
  N        11.7330438684       -0.8096357927        2.1268295956
  C        12.1947368343       -0.7382494353       -0.1398392082
  C        12.5365223658        1.3714167128       -1.3399103659
  H        12.2914443453        3.2171895986       -0.2307768895
  H        13.7196524706        3.3778651548       17.9771741237
  H        12.9194819178        1.8639595953       17.9947313212
  H        12.1185645091        3.1792513694       17.2560331781
  S         6.3723725828        6.4397031890       17.9294028056
  C         6.7688921067        9.0197050175       18.6057994410
  H        15.1586644388        5.2615364605        7.0917876471
  H        15.9729289017        4.4242165327        5.8100678360
  C        17.0281592378        6.1879061162        6.4120544137
  H         6.0571237834        4.8096228028        2.4259153696
  H         6.9596618955        4.8472515240        1.1151544621
  C         5.3606569013        6.3599446570        1.0874505087
  S        11.7231365901       -2.3269864752        1.6017828590
  N        12.0298367613       -2.0853661661        0.0727307465
  C        12.5458358803       -0.1455151128       -1.3695038879
  H        12.8123039105        1.9728830161       -2.1980437310
  C         6.2784468479        7.0997338468       19.5654916720
  N         6.4255796166        8.3941693000       19.7452396367
  O         6.9880408354       10.1881766283       18.4444848383
  H        17.3662348817        6.6245883837        5.5284684244
  H        16.8280689758        7.0014463225        7.0821487404
  C        18.0787982666        5.2889541863        6.9447462074
  H         5.8088531948        6.7604867666        0.1709318414
  H         4.5788794328        5.7220763685        0.7041904290
  C         4.6227957932        7.4346032643        1.9197815473
  C        12.7899111917       -1.0570506608       -2.4780415002
  S         5.7645509194        6.1137092940       20.9626017464
  C         6.1816240046        9.1104777449       20.9909998292
  H        17.6990090911        4.8786504972        7.8008508587
  H        18.3767326093        4.4124669433        6.2862055286
  C        19.3688913740        6.0350317621        7.2766907367
  H         5.3246590674        7.9756424211        2.4482736259
  H         4.1050974198        6.8697092878        2.7366455510
  C         3.7213800005        8.3989401901        1.1480509668
  H        12.6168740194       -2.1258896608       -2.3014029829
  C        13.3289611844       -0.9364956206       -3.7749637198
  H         5.3258994297        8.6475589617       21.5397401519
  H         5.6725161976       10.0145289168       20.7319063947
  C         7.4475545798        9.4417319615       21.8154049807
  H        19.7065070127        5.4768446398        8.1630715035
  H        19.0665830872        7.0243626397        7.5010923552
  C        20.3683479351        5.8778946598        6.1108038844
  H         3.6628569382        8.1084452102        0.0914124491
  H         2.7760743984        8.1843778302        1.5105615578
  C         4.0277979638        9.8133274504        1.3459543966
  S        13.8016232304        0.5953603689       -4.3813756809
  C        13.3789773552       -2.0688642756       -4.7364827657
  H         7.5462938360       10.5060184421       21.9403421807
  H         8.3700970787        8.9303261406       21.5255766244
  H         7.3008538479        9.0140625754       22.7474308136
  H        19.7267664407        5.9581802086        5.2458892551
  H        21.0886760473        6.6964473348        6.1149533320
  H        20.8850087811        4.9358923877        6.1405921483
  H         3.6331707266       10.2343928562        2.2602389058
  H         5.1100627029       10.0676214695        1.2968543873
  H         3.5638127807       10.3781699626        0.5304891731
  C        14.1359530439       -0.2635625108       -5.8371736664
  N        13.8712067397       -1.6171236347       -5.8768456466
  O        13.0700164340       -3.2363282765       -4.3656765790
  S        14.6982813170        0.4158039797       -7.3176102825
  C        13.8721558706       -2.5357057681       -6.9862891735
  H        13.6794372388       -3.5313218150       -6.6859794863
  H        14.8593861688       -2.5210798958       -7.4082822258
  C        12.8446798391       -2.1876052464       -8.0115867552
  H        11.8538211826       -2.5141740102       -7.7695089775
  H        13.1871535025       -2.5540316269       -8.9610345617
  H        12.7611556149       -1.1357512861       -8.0907181023
