352
 i =    43500, time =    21750.000, E =       100.2232615815
  H         9.6699281286        5.2517137435       31.0974561409
  C        10.2510649652        5.9884785168       31.6999306756
  H         9.4538050941        6.6416000576       32.0565338344
  C        11.2312158728        6.5944138591       30.7617447477
  C        11.0019872834        5.3842998438       32.9220985438
  C        11.4689095817        5.7013121506       29.5426237412
  H        10.9303011930        7.5926537972       30.4055732768
  H        12.1964121908        6.7305531395       31.2928304769
  H        11.5325114643        4.4676810597       32.7440776100
  H        11.7196586211        6.0339115217       33.3701160412
  H        10.5274657372        5.1380785199       33.8201138571
  C        10.2946958068        5.5191980336       28.5536594426
  H        11.7366214366        4.7824110374       29.9179279726
  H        12.2859424889        6.1213995540       28.9901745198
  C        10.8402312965        5.3951010603       27.1172983857
  H         9.5978495344        4.6147012678       28.6573133884
  H         9.6928620378        6.3769657532       28.5569218712
  C         9.6851154233        4.8172498391       26.2049390556
  H        11.6471518504        4.7149141274       26.9942789397
  H        11.2077455741        6.3447121488       26.8229815489
  C         8.5231509268        5.7539899632       25.9676826093
  H        10.0607911635        4.6859830159       25.1472354293
  H         9.3251230406        3.8369415268       26.6046990807
  C         7.2908788725        5.0500673829       25.3608955045
  H         8.2392149311        6.2879625075       26.8660485808
  H         8.9227943760        6.3926255976       25.1834944511
  C         6.8209417381        3.7658305156       26.0578246224
  C         7.5567206306        4.2678910750       24.0729736049
  C         6.1194690837        6.0607206233       25.2820568989
  C         6.9957305063        2.6702043799       25.2653796109
  C         6.4254688652        3.3658946581       27.3398007928
  C         7.3684079412        2.9617464742       23.9717671986
  C         8.0438947224        4.8013241290       22.8626370560
  H         6.2228557693        6.9058915585       24.5414903431
  H         5.9860366353        6.4482303291       26.3558625038
  C         4.7716670327        5.2639475466       25.0174680037
  S         6.7413015083        1.1805309831       26.0407925005
  C         6.3107460361        2.0242794262       27.5001570096
  H         6.4114610238        4.1474728415       28.1226851942
  C         7.8590387654        2.2586118719       22.8525309923
  H         8.2404880720        5.8643344578       22.8562553564
  C         8.3464141849        4.1500904696       21.7205058885
  H         4.9153246801        4.4899385857       24.2116975440
  H         4.6166952237        4.7281591024       25.9633252573
  C         3.5483202371        6.0637246284       24.7413423737
  C         5.8837805276        1.4270996637       28.7908578500
  C         8.3239755676        2.8112658270       21.6468090408
  H         7.7299624844        1.2144684473       22.8997073313
  C         8.8359712390        4.5620333610       20.4702102386
  H         2.9351527542        5.4493137619       24.1318598228
  H         3.8517625886        6.8465165282       24.0860537457
  C         2.7523327140        6.4540130414       25.9297217666
  C         5.9215726238        0.0400814796       29.0439077252
  C         5.3961842821        2.3277243313       29.8632165040
  C         8.7966625017        2.1581688448       20.3403775409
  C         9.0704212718        3.4690928557       19.6679777457
  S         9.1892294135        6.0755072831       19.7334479085
  H         2.0968453407        7.3445222027       25.8201271604
  H         3.5750009456        6.6638465816       26.6447386922
  C         1.9295980255        5.3246418121       26.4648381310
  N         6.0980636643       -0.9352001677       28.1403347848
  C         5.7301171900       -0.4809150484       30.3235281472
  C         5.1420186643        1.8006840128       31.0938539267
  H         5.0724628112        3.3497766594       29.6503495490
  C         7.6196576260        1.4480213558       19.6715585832
  C        10.0511574442        1.2341191665       20.5288153270
  C         9.5141627549        3.8705141497       18.3917241379
  C         9.5701278797        5.2400412840       18.2559613303
  H         1.0835643153        5.1414951606       25.7779595419
  H         2.3036647562        4.3148854980       26.6093488828
  C         1.2509017596        5.5495711184       27.7989962684
  S         6.0858592116       -2.4190935695       28.9211611022
  N         5.7646413934       -1.8996317366       30.4182454360
  C         5.4066021576        0.3583414131       31.4884165179
  H         4.7469418346        2.5042573036       31.8145889887
  H         7.3942455620        0.7056454289       20.3900641301
  H         7.9587312775        1.0530087133       18.7464873923
  C         6.4112116394        2.3419833965       19.3972519701
  H        10.3708570855        0.6570777787       19.7434629026
  H         9.9137845746        0.5683421215       21.3584532308
  C        11.2957757039        2.0371668843       20.9996634792
  H         9.7095247210        3.0995739559       17.7198816815
  C        10.0256855157        5.9954626252       17.1131206722
  H         0.5208140222        4.7102128507       27.9132239348
  H         0.7043841909        6.5165755549       27.7884245297
  C         2.2320868091        5.5771702731       28.9435320492
  C         5.0989768952       -0.2162541315       32.7744318035
  H         6.7442766147        3.2443947290       18.9552591614
  H         5.9013873615        2.5193584877       20.2925596071
  C         5.5092482979        1.5917739922       18.3983083446
  H        10.9655921943        2.6864657188       21.8346194778
  H        11.6475410826        2.6260201736       20.1655953462
  C        12.5525235059        1.2199971206       21.3192186306
  C        10.0432474970        7.4164765578       16.9318398728
  C        10.3898772876        5.1930688040       15.9000974148
  H         2.7731909930        4.5669900621       28.7803918943
  H         3.0482037576        6.2802548835       28.7880859183
  C         1.6120147302        5.6899621345       30.3517792839
  H         5.4642017552       -1.2657912530       32.8112417848
  C         4.6947471737        0.3015725215       34.0147179468
  H         5.1546462257        0.6964839706       18.9614448123
  H         5.9431088604        1.2194879775       17.4847215629
  C         4.2941906750        2.5199190659       18.1216406930
  H        12.2895411443        0.4191532653       22.0416317713
  H        12.6842543927        0.6387084933       20.3751414818
  C        13.6078800472        2.1750627276       21.6874085513
  N         9.8655558142        8.3127890920       17.9764318574
  C        10.2244324225        8.0939881060       15.7476967973
  C        10.6140215295        5.8813708675       14.7139382852
  H        10.4997866676        4.1209784249       15.8987482328
  H         2.3999753027        5.5174112480       31.0747807989
  H         1.2142938701        6.7205806531       30.5105578663
  H         0.7280114955        5.1010805165       30.5937722698
  S         4.3242591371        1.9354889186       34.2208395738
  C         4.7129235485       -0.5464641555       35.2332650042
  H         4.3351429703        3.4422840557       18.8181692103
  H         4.3205433337        3.0827531663       17.2041421990
  C         2.8227441213        1.9151168047       18.1649118472
  H        13.0973863337        2.9514422533       22.2791119715
  H        14.0793511819        2.7128215639       20.8281874892
  C        14.7147686987        1.6002470862       22.6576924557
  S         9.6972849766        9.8456456571       17.3320340662
  N        10.1000231372        9.5116732429       15.7904499655
  C        10.4310360643        7.3940206384       14.5645674119
  H        10.9000351994        5.3277087323       13.8520203044
  C         4.2304862665        1.5114858424       35.9093289853
  N         4.3846510232        0.2017475791       36.2322388558
  O         4.9325587269       -1.7872403129       35.1608951792
  H         2.1307686390        2.6109736791       17.8030018117
  H         2.5211873091        1.8156727561       19.2315616868
  C         2.5608414628        0.6498575370       17.3224097184
  H        14.1261313634        1.0000608642       23.3403752023
  H        15.4326427548        0.9640095845       22.1420770899
  C        15.4963717779        2.7696606744       23.3896726532
  C        10.6722531821        8.1747339586       13.3412623530
  S         3.8181823445        2.5929516464       37.2246289826
  C         4.3965229016       -0.3897641701       37.5916833999
  H         1.5709091248        0.5819294705       16.9347041745
  H         3.1574227019        0.6705242469       16.4502854229
  C         2.6594264946       -0.7000053101       18.1245413228
  H        14.9930280041        3.2974615907       24.1428248624
  H        15.8344092271        3.5183286217       22.7105116901
  C        16.7395139680        2.1488945951       24.0661735579
  H        10.3118229069        9.1707817557       13.4401918121
  C        11.1715097023        7.9130682508       12.1063746994
  H         3.9677263480        0.2555437944       38.3164053042
  H         3.6627508211       -1.2254067285       37.6362976517
  C         5.7668266225       -0.9561403087       38.0333230480
  H         1.8447143002       -0.5565251853       18.9051272029
  H         3.6014736487       -0.7830465027       18.6013191713
  C         2.3332166182       -1.9277869978       17.3350818440
  H        16.9760547119        2.7105586528       24.9422616994
  H        16.5077715410        1.1801041623       24.3411423039
  C        17.9537870834        2.1147233945       23.0973701664
  S        11.7804366463        6.4427299843       11.5569434547
  C        11.0995567366        8.9852389933       11.1083071601
  H         5.7273358373       -1.2519018930       39.0806160973
  H         5.8117350466       -1.8733276310       37.5158788212
  H         6.5637906090       -0.2321331402       37.8798217863
  H         2.7642547323       -2.0970033014       16.3716136947
  H         1.2207361070       -2.0270941641       17.3465708821
  H         2.6408359377       -2.7562271065       18.0069850699
  H        18.8710337507        2.2960972167       23.5931305676
  H        17.8670831246        2.8176273272       22.3021419500
  H        18.0305575528        1.1270451072       22.5533504575
  C        12.1497878161        7.3257630799       10.0781522048
  N        11.7908888856        8.5916664911       10.0399363243
  O        10.5800331586       10.0232547279       11.2872553764
  S        12.9677508549        6.7220953890        8.6899761061
  C        11.9672410030        9.5436254049        8.9166859197
  H        12.1473445545       10.4907126856        9.2836912807
  H        12.9274868731        9.4008350328        8.4331766442
  C        10.7173470835        9.3960817974        7.9865366954
  H         9.9152490267        8.7409019282        8.4016633083
  H        10.3213381604       10.3831949113        7.8386915138
  H        10.9669589265        8.9547272345        7.0723067508
  H         5.3786895189        1.6543336349       12.5711893156
  C         4.5333678997        2.2826587368       12.8419363196
  H         5.0275458210        3.2687422877       12.6801207420
  C         3.3509641091        2.3325013340       11.8328457261
  C         4.0945752145        2.2898334115       14.2675757963
  C         3.8473318766        2.5424040875       10.3407217790
  H         2.6245238491        3.1865704705       11.9789334331
  H         2.7901462524        1.3888477741       11.9520908352
  H         3.0601178534        1.8773155670       14.3813836366
  H         3.9926417492        3.3079575479       14.5836609078
  H         4.6051247335        1.7962682598       15.0795590083
  C         4.5679364891        1.2860269387        9.8621992743
  H         2.9195241401        2.7711652523        9.7391729090
  H         4.5650893071        3.3268141610       10.1398640253
  C         5.3132727067        1.4083110991        8.4583762185
  H         3.7912388151        0.5373041951        9.7570121536
  H         5.3094827834        0.9203983642       10.6255730389
  C         6.5655864041        2.3579131676        8.3453236638
  H         4.6995600520        1.8330267522        7.6780266016
  H         5.5824195267        0.4030617937        8.0363442075
  C         7.7978227569        1.8117962007        9.0595825131
  H         6.9442317373        2.4588357243        7.3463895794
  H         6.3235774455        3.4081702564        8.6059969481
  C         8.9990610555        2.7948310639        9.2764415341
  H         8.0895403499        0.9819615751        8.3727559014
  H         7.4861964717        1.4715345111       10.0662810371
  C         8.5719892252        4.1085197400        9.9678350942
  C         9.5075504488        3.5815821280        8.0885813574
  C        10.1746599472        2.0088373975        9.8853329745
  C         8.8844415898        5.2627210706        9.2515456365
  C         8.0107808368        4.4231497961       11.1738158709
  C         9.4517997347        4.9093606672        8.0587985146
  C        10.0834432404        2.9962841971        6.9390592961
  H         9.7514529688        1.4409420014       10.7306231127
  H        10.5105293206        1.3238258074        9.1281461372
  C        11.4176814468        2.8945398093       10.3189486784
  S         8.4020008197        6.6670945935        9.9919007474
  C         7.8925488578        5.7749610871       11.3697665571
  H         7.8476309809        3.6212786025       11.8557425864
  C         9.8111295604        5.5650824960        6.8839012104
  H        10.1955350681        1.9661786512        7.0217388690
  C        10.3552146033        3.6032032653        5.7527685726
  H        11.0781535347        3.8931041074       10.6841270970
  H        11.9641013314        2.9971315775        9.4230014958
  C        12.3551996456        2.3065685531       11.3668786038
  C         7.4135700189        6.4691157922       12.6016769162
  C        10.2064913444        4.9323809697        5.6480544645
  H         9.6482533065        6.6886398133        6.7938896896
  C        10.7634425520        3.2401190024        4.4804989677
  H        13.2336034007        2.9613450512       11.4487387999
  H        12.7159301971        1.3807262862       10.9649218049
  C        11.7044953576        2.1184952461       12.7180576711
  C         7.3825896072        7.8528277194       12.8800404390
  C         7.1089674093        5.5045247467       13.7158722615
  C        10.5204464691        5.6250116909        4.2805090622
  C        10.8423598392        4.3244115818        3.6264014760
  S        11.1455716787        1.7433951251        3.7551483096
  H        11.2574362422        3.0351213482       13.0222746909
  H        10.9914556558        1.3439118568       12.6174141918
  C        12.7395564200        1.7233013230       13.8761513838
  N         7.4802725338        8.8629476006       11.9843919061
  C         7.1549652384        8.3222761823       14.2049588931
  C         6.6869758081        6.0425943170       14.9594965082
  H         6.8278424763        4.4857731113       13.6112163740
  C        11.7558932894        6.5656460684        4.3593880068
  C         9.2680639242        6.3272891989        3.6749077714
  C        11.2189257123        3.9167313547        2.3369661227
  C        11.4232410825        2.5728792184        2.2616534423
  H        13.2652226282        2.6297341077       14.2348651130
  H        13.5711145740        1.0671734584       13.5850686645
  C        12.0449259102        0.9871462071       14.9831956336
  S         7.7220455658       10.2986344779       12.8253091113
  N         7.3581651114        9.7240989674       14.2697197469
  C         6.7985107212        7.5071529860       15.3019375967
  H         6.2631146226        5.3544363480       15.6853052596
  H        11.3353943647        7.3730673197        4.9172318233
  H        12.0900903491        6.8192102312        3.3082693739
  C        12.9554855520        5.8683587084        4.9894444165
  H         8.8744272016        7.0521399337        4.3413235450
  H         9.5343582055        6.7611707472        2.6983764933
  C         8.1123527996        5.4742448210        3.4134840707
  H        11.2775395308        4.6689534681        1.5196143884
  C        11.8449194977        1.8530188095        0.9985158623
  H        11.2172030606        1.3521684599       15.4544550943
  H        11.8167900992        0.0862748061       14.4548593352
  C        12.8992909556        0.5433560534       16.2244407131
  C         6.5124546123        8.1273659608       16.5864446618
  H        12.6705849198        5.6153703350        5.9768379249
  H        13.1699641494        5.0012251519        4.4652293389
  C        14.2138941874        6.6451404862        5.2361754200
  H         7.7989667645        5.0849320938        4.3686793676
  H         8.2690057370        4.6654944115        2.7750752161
  C         6.8706075353        6.2696920352        2.8811424035
  C        11.9431000503        0.4110809625        0.8056699724
  C        12.2091001131        2.6564361490       -0.2071628690
  H        13.8530473185        0.2574088767       15.9471266755
  H        12.3373600606       -0.1496199163       16.7620381900
  C        13.0998121156        1.6937001995       17.2337835336
  H         6.7647514059        9.0980649870       16.5505562326
  C         6.3189944985        7.5709196424       17.8047601433
  H        14.0799351146        7.2761783594        6.1066486700
  H        14.4848368521        7.1573783376        4.3447145967
  C        15.2859159439        5.6777630778        5.5387553795
  H         6.5474940346        7.1930213767        3.3857782127
  H         7.1495075081        6.5353341450        1.8855604973
  C         5.7446681551        5.2968538206        2.6112836679
  N        11.8364510561       -0.5933809531        1.7854597904
  C        12.2525537986       -0.1478919269       -0.4151194058
  C        12.5859752745        2.0256902904       -1.4285496877
  H        12.1661813736        3.7567527671       -0.2518386228
  H        12.0686599216        1.9973890946       17.6294053827
  H        13.5204744075        2.5403514018       16.7702997113
  H        13.6809415610        1.4029930537       18.1991391282
  S         5.8265493831        5.9388992104       18.0689267675
  C         6.4008344181        8.3996168777       19.0190232485
  H        14.8835326347        4.7585868713        5.9730961554
  H        15.6797683189        5.5022239445        4.5111745145
  C        16.4274717838        6.2264557966        6.4166671390
  H         5.5605709950        4.8102706118        3.5506390944
  H         6.0592900000        4.5515007394        1.8827457789
  C         4.5229137469        5.7894278881        1.8614367127
  S        11.9448389024       -2.0351672922        1.0660222517
  N        12.3292398804       -1.5091938371       -0.4003193104
  C        12.5360683896        0.5612748846       -1.6057016395
  H        12.9127405658        2.6262331238       -2.2554737481
  C         5.8124761026        6.3994192208       19.8659513011
  N         5.8819306561        7.7455709161       20.0438699069
  O         6.8052198691        9.5149568818       18.9696354953
  H        16.9012392778        6.9695951470        5.8097360104
  H        16.0337146387        6.6039449837        7.3812719876
  C        17.5174098858        5.1330923520        6.6520654458
  H         4.6550705266        5.8230733408        0.7706828768
  H         3.6766073543        5.1026641694        1.8705508719
  C         4.0089561138        7.1897613744        2.3786662984
  C        12.7513023917       -0.2420540853       -2.7578845383
  S         5.2027447662        5.6309941771       21.3099482176
  C         5.7813499107        8.4994424238       21.2988310602
  H        17.0742849965        4.2491471569        7.1356542154
  H        17.8462163568        4.7881465344        5.6730013557
  C        18.8079990960        5.6922597840        7.3658407004
  H         4.3686138035        7.3245553189        3.3980268385
  H         2.9307196738        7.3025147398        2.4171600974
  C         4.6052206507        8.2762918337        1.5206585560
  H        12.3794957350       -1.2543566043       -2.7927182746
  C        13.2633513198        0.0689801643       -4.0047743094
  H         5.1083114652        8.0947339801       22.0440093127
  H         5.3720710794        9.4538087544       21.0688642411
  C         7.1890609203        8.6940905882       21.8862430204
  H        19.0571953550        5.0304382902        8.1108136727
  H        18.5505204836        6.6042356541        7.8673237493
  C        19.9342908902        5.9185134795        6.3880054234
  H         5.1620063149        9.0129913652        2.2453419240
  H         5.3469529778        7.8432906840        0.8490795768
  C         3.6738903131        9.1778265301        0.7309757134
  S        13.7832562828        1.7204952728       -4.4875533678
  C        13.3300966894       -1.0126315082       -5.0443315592
  H         6.9879649553        8.7641182221       22.9333851277
  H         7.6689514691        9.6633743426       21.6059059883
  H         7.8472925467        7.8322000654       21.7268759057
  H        20.3302422932        5.0004833243        5.9245925196
  H        19.5359277451        6.6316298776        5.7376362220
  H        20.7668121087        6.3287987371        6.9461171764
  H         4.1985278938       10.1004548058        0.3658632593
  H         3.4348627960        8.5800125162       -0.1311354994
  H         2.8298530400        9.4746439217        1.4196186592
  C        14.2412973384        0.7984424865       -5.9996693214
  N        14.0212966655       -0.4947429500       -6.0882359489
  O        13.0589561114       -2.1662340325       -4.8101524462
  S        15.0553750476        1.6372066012       -7.2055768369
  C        14.0704455131       -1.3994730348       -7.2585744140
  H        14.2417774723       -2.4298834494       -6.9188505163
  H        14.9875459525       -1.0775190949       -7.7709408850
  C        12.8211996567       -1.3072338835       -8.1849777759
  H        11.9312979823       -1.6675115784       -7.6409363626
  H        12.9429247264       -1.9732236281       -9.0561030066
  H        12.6791482958       -0.3395983465       -8.5334776504
