352
 i =   112800, time =    56400.000, E =        99.0007569948
  H         9.4558926479        5.0251607226       31.4867536383
  C        10.0683409455        5.8138038605       31.8780573806
  H         9.5401017543        6.7945972477       31.9261405922
  C        11.2502989390        6.0853866877       30.8880210466
  C        10.4304275008        5.4664471281       33.3575866437
  C        10.8716565744        6.3639037367       29.4740738478
  H        11.8493927671        6.9396638536       31.2516582364
  H        11.9145678431        5.2338862533       30.8633611182
  H        11.4713001444        5.3223560523       33.5296255236
  H        10.0822098505        6.3200192669       34.0586495893
  H         9.8750661084        4.6036138247       33.6037703100
  C        11.0362821454        5.1841267548       28.5276433165
  H        11.6067792854        7.1089959697       29.1939717748
  H         9.8582880584        6.7612606599       29.3742266447
  C        11.0008381051        5.6516022949       27.0064681965
  H        12.0000836779        4.6761677817       28.6617455360
  H        10.3281030698        4.4312712144       28.7854903960
  C         9.7811145135        5.0293961245       26.3280224120
  H        11.9439541687        5.2085451411       26.6102572821
  H        10.9231903285        6.7287563526       26.9066559609
  C         8.6180606265        5.9778913924       26.0967134295
  H        10.0774712005        4.5299843335       25.3535492381
  H         9.5578213131        4.1002538128       26.8632868235
  C         7.4212144200        5.2817087481       25.4753328032
  H         8.2926557249        6.4818589074       27.0152098153
  H         8.8676621652        6.7295724092       25.4199285744
  C         6.9731210549        3.9564205489       26.0970314440
  C         7.7360159447        4.5832359433       24.1465248183
  C         6.1930768757        6.2801279668       25.2417644316
  C         7.0052055600        2.8910210933       25.2569044455
  C         6.5975696338        3.5973478564       27.3477571572
  C         7.5281780339        3.2426811899       24.0280752170
  C         8.1812248300        5.2389415960       23.0493008232
  H         6.4490470970        7.1743690772       24.6501261162
  H         5.9616586750        6.7161057987       26.2321432043
  C         5.0865387260        5.6795872407       24.4432228866
  S         6.5099229008        1.3685768761       25.9560391270
  C         6.2435083604        2.2393456380       27.4020842294
  H         6.5004653975        4.3776912148       28.1369227446
  C         7.8005051112        2.5641768849       22.8955115969
  H         8.3063012792        6.2884617991       22.9948765428
  C         8.4912988905        4.5811354944       21.8859355893
  H         5.3709718538        5.5479649220       23.4388844151
  H         4.8441312444        4.7184663921       24.9023590029
  C         3.7984320159        6.5262892330       24.2372198392
  C         5.7254127634        1.5793738750       28.6411405665
  C         8.3063504487        3.2066156367       21.7665453282
  H         7.6312132090        1.4560931072       22.9159530590
  C         8.9832726411        4.8894405936       20.6346084655
  H         3.0849981195        6.0401986798       23.5290740123
  H         3.9155961459        7.5615653689       23.8605133268
  C         2.9937231589        6.7263325258       25.4997336358
  C         5.7157674378        0.2012034030       28.8940847912
  C         5.2065052265        2.4282768916       29.7784536673
  C         8.7790871665        2.5146645572       20.5200103896
  C         8.9896105563        3.8293339913       19.7728560551
  S         9.1935699969        6.4055809883       19.8454512284
  H         2.1438620395        7.2329307386       25.0948304850
  H         3.5554086851        7.2648485783       26.2773903654
  C         2.4656606506        5.3803573632       26.0688224322
  N         6.0986483540       -0.8110891652       27.9488646824
  C         5.3591321051       -0.3638506579       30.0969931943
  C         4.9950052493        1.8173646687       31.0224327259
  H         4.9315046317        3.3992397622       29.5436774885
  C         7.6811329546        1.6636582216       19.7410009788
  C        10.1002511431        1.8045612929       20.7466875967
  C         9.4706604193        4.2018900461       18.5335378713
  C         9.5013780473        5.5587520963       18.3703587085
  H         1.9674981478        4.8044373366       25.3390022026
  H         3.2827228616        4.7738830733       26.4552961086
  C         1.3832689085        5.5272400786       27.2053528587
  S         6.0311751817       -2.3019785978       28.6654379728
  N         5.5058825820       -1.8063034479       30.1025812742
  C         5.0383257703        0.3513980071       31.2377604271
  H         4.4712539478        2.4918735081       31.7527213310
  H         7.4311769006        0.7461400268       20.3050950015
  H         8.1955957521        1.2964843971       18.8142859140
  C         6.4539096254        2.3580635920       19.2886271536
  H        10.4441719775        1.2950228293       19.8741640316
  H         9.7864952675        0.9387610201       21.3798908751
  C        11.2517082975        2.6361615275       21.3040890571
  H         9.7040117642        3.4090946963       17.8540875356
  C         9.8625548286        6.2715207378       17.1486040364
  H         0.9199112572        4.6402634283       27.5397989877
  H         0.4956699857        5.9234658016       26.6389934544
  C         1.8000763843        6.3214306700       28.4073443941
  C         4.7392836155       -0.4244533216       32.4570574392
  H         6.7418926452        3.1815554137       18.5047578288
  H         6.1233111508        2.9633890075       20.0864095142
  C         5.3920355179        1.4673836613       18.8033145988
  H        11.0603641629        2.7520794176       22.3879198833
  H        11.3023833255        3.6821561182       21.0419934096
  C        12.6311386068        1.8799115805       21.2990173221
  C        10.0640688186        7.6844498465       16.9535663249
  C         9.8111698370        5.5179976760       15.8793131893
  H         2.0302164017        7.3272974997       28.1105770631
  H         0.9572416631        6.3089876995       29.1094670065
  C         3.0575721710        5.7313639143       29.1144598671
  H         4.7304991671       -1.5036952937       32.3371020376
  C         4.4698968853       -0.0522085109       33.7053591330
  H         5.0686372128        0.7692545256       19.5766059372
  H         5.8402487132        0.8580142857       18.0347127059
  C         4.2687049572        2.2910001487       18.1483422282
  H        12.5908991408        1.2094553304       22.0939116618
  H        12.8401000883        1.3307413695       20.3887072494
  C        13.8099520651        2.8288328189       21.5229971912
  N         9.7375470882        8.6607003741       17.9149069265
  C        10.2393011136        8.3182173730       15.7290803382
  C        10.1938378584        6.1335253852       14.6634168555
  H         9.4614591961        4.5395423443       15.9513946324
  H         3.3237142659        6.2438175763       29.9799162238
  H         3.0157050944        4.6989069246       29.3873275393
  H         3.9616713725        5.7340953019       28.5858536017
  S         4.4945500219        1.5748743408       34.3108009697
  C         4.3227073470       -1.0868896359       34.7820686863
  H         4.1178582969        3.2369644702       18.6190380784
  H         4.4296959885        2.5173663386       17.0959168222
  C         3.0023737093        1.5695771872       18.1707305009
  H        13.5480172574        3.5857181188       22.2662798066
  H        14.0247663165        3.2935197907       20.5202366742
  C        14.9699639775        2.0706751885       22.1816706678
  S        10.1074699675       10.1133182461       17.3024220541
  N        10.5728464082        9.6830530173       15.8237017991
  C        10.4518111842        7.6042454757       14.5817121619
  H        10.1741838027        5.4570427632       13.8509359874
  C         4.1450368717        0.8748267698       35.8973974648
  N         4.0465960154       -0.4158902052       35.9133446935
  O         4.1242231790       -2.2936545764       34.6178993086
  H         2.1627815097        2.2514485485       18.0116206614
  H         2.9200047454        1.1463428190       19.1976484002
  C         2.9916548100        0.3454709161       17.2301512270
  H        14.7649544467        1.9338984356       23.2599508954
  H        15.1158581066        1.0743587462       21.7456000999
  C        16.1502948045        3.0087875367       22.0665625249
  C        10.8035384310        8.3421842094       13.3372449204
  S         3.9763105223        1.6978145751       37.3996077392
  C         3.8405922169       -1.2500235895       37.1384362770
  H         2.4282644701        0.7385105404       16.3444930770
  H         3.9363459985        0.1655324312       16.7336934062
  C         2.2970379718       -0.8288198504       17.7877876712
  H        16.0214258764        3.9696853230       22.5716420295
  H        16.2652380233        3.2057456361       20.9847999765
  C        17.3849558037        2.4160056625       22.6519904576
  H        10.4577803173        9.3535527669       13.2426705987
  C        11.3506275762        7.8499945311       12.1570375699
  H         3.3751156243       -0.7411919276       37.9339369009
  H         3.3461300130       -2.1427467910       37.0329718655
  C         5.2216605510       -1.5842547995       37.6559848939
  H         1.2958716203       -0.7597407994       18.2271966556
  H         2.9535545242       -1.1252693794       18.5457535933
  C         2.0573765307       -1.8927689132       16.6834888076
  H        17.4818420039        1.4917899386       22.0600720135
  H        18.2760550291        3.0291006805       22.4318399073
  C        17.3263262330        1.9597884324       24.0966377509
  S        11.7530659881        6.1974768725       11.7753579667
  C        11.4368322935        8.7665411256       11.0209002895
  H         5.2186150624       -2.6823120520       37.8490288512
  H         6.0845637715       -1.3535242414       36.9957801109
  H         5.3603592983       -1.0938700576       38.5875953098
  H         1.3261751330       -1.4611975021       16.0329817474
  H         1.5188081110       -2.7438897633       17.1844353106
  H         2.9561241316       -2.2347337173       16.1233605243
  H        16.5335660732        1.2058614466       24.0729142478
  H        17.0250460730        2.7287982227       24.7689958146
  H        18.3032163604        1.5138130376       24.4950181014
  C        12.2624133721        6.7767554476       10.2038154863
  N        12.0960780137        8.1208236483       10.0258426528
  O        11.0542568536        9.9694042160       10.9471136632
  S        13.1316487226        5.9048078703        8.9996150019
  C        12.5498397785        8.8012701765        8.8471009011
  H        12.7276654807        9.8937814115        9.0551151851
  H        13.4274144846        8.3653605069        8.4276981323
  C        11.4167029155        8.8041587361        7.8219204632
  H        10.5499772925        8.2835412073        8.1022307702
  H        11.0497959057        9.8145190188        7.7611733478
  H        11.8070465536        8.4774222412        6.8265263837
  H         2.6988215998        3.5843890851       12.4887300014
  C         3.2122710311        2.6444590998       12.4831888247
  H         2.3624300088        1.9217739421       12.2309268000
  C         4.2980610509        2.7026276739       11.4087453075
  C         3.6958932058        2.3651577357       13.8808743949
  C         3.6554966057        2.3296175768       10.0510607732
  H         5.2546277929        2.1514984383       11.5573294042
  H         4.6610043097        3.6638535875       11.4796261626
  H         2.8137344666        2.0135642482       14.4650986676
  H         4.2363373535        3.1544381489       14.4332664146
  H         4.3938547620        1.5370079636       13.7951041590
  C         4.4349618639        1.3011571877        9.3126611679
  H         2.6588552245        1.9517006826       10.1803783766
  H         3.5435391343        3.2266149581        9.4579915251
  C         5.1960622346        1.7406564663        8.0439331278
  H         3.7167149284        0.6171880846        9.0759703783
  H         5.1157413165        0.8315960824       10.0131534041
  C         6.4467806537        2.6131101344        8.3535886407
  H         4.4296332646        2.1766332741        7.3298999489
  H         5.4489472445        0.8713566375        7.5312156828
  C         7.6091271060        1.8503418923        8.9903741679
  H         6.6485305770        3.0398076538        7.4115581077
  H         6.1763528408        3.4470770008        9.0196860669
  C         8.9688528318        2.6728738557        9.0993764998
  H         7.7852012856        1.0115289683        8.3571227366
  H         7.2995933448        1.4221544541        9.9321295762
  C         8.6447967845        4.0425133465        9.7037101208
  C         9.4643491967        3.3513209955        7.8501859545
  C        10.0555936333        2.0000383969        9.8395788178
  C         8.8673635251        5.1222469494        8.8695205929
  C         7.9871100889        4.4871508966       10.8843309484
  C         9.5108143421        4.7012551382        7.7682210126
  C        10.0309593922        2.7179309039        6.7279298307
  H         9.6994694005        1.6391103189       10.8333042260
  H        10.2876221908        1.0068850086        9.5154587715
  C        11.3712486236        2.8937119604        9.9510811880
  S         8.3099564186        6.6502672925        9.5180953747
  C         7.9441636045        5.8011280057       10.9677320759
  H         7.7480120916        3.8003914921       11.6436253393
  C        10.0482679355        5.3177369295        6.7063770215
  H        10.0645335902        1.6192046985        6.7013903775
  C        10.5556157022        3.4047458117        5.6669724772
  H        11.1324818103        3.9536841277        9.9501424595
  H        11.8431599816        2.7184944678        9.0324459330
  C        12.3706811984        2.4869220435       11.0665290448
  C         7.4203497809        6.5429995465       12.1377398661
  C        10.6110308246        4.7248279520        5.5779111220
  H         9.9462419942        6.3733486574        6.6686004028
  C        11.0407249765        3.0209064725        4.4459781699
  H        13.4309984231        2.9840115472       11.0242906521
  H        12.6281427435        1.4738344613       10.7935968484
  C        11.8092067020        2.3498328479       12.4521660213
  C         7.5336062148        7.9034546998       12.3809671377
  C         6.8795564482        5.7454731437       13.2627084699
  C        11.0387313169        5.4859587588        4.3270141461
  C        11.2104861131        4.1500840642        3.6408309467
  S        11.3326432317        1.4900077161        3.6759864533
  H        11.5339244119        3.3594111999       12.6916795229
  H        10.9070572746        1.7302687177       12.4644045402
  C        12.6896723540        1.7608100482       13.5694086777
  N         8.1507968202        8.8797221290       11.5665254262
  C         7.1780154944        8.4688729669       13.6194262380
  C         6.6217676627        6.2553182029       14.4984608386
  H         6.5649189316        4.6699239351       13.1735887503
  C        12.2735010277        6.2823901110        4.5904854093
  C         9.8449358113        6.1910791869        3.5672500024
  C        11.5255420954        3.6908712133        2.3127155329
  C        11.6733012850        2.2983506449        2.2137985804
  H        13.7539134740        1.9566212090       13.4798213437
  H        12.6403933031        0.6388708565       13.6464582293
  C        12.2175920655        2.4749653089       14.8561364423
  S         7.9392149827       10.3089574516       12.2140858453
  N         7.3441481017        9.8633976669       13.6092842808
  C         6.8332847552        7.6697542628       14.7674401245
  H         6.2531953364        5.6274700582       15.2488677210
  H        12.0544203197        7.1810504243        5.1477767464
  H        12.4504034535        6.5959686901        3.5614529770
  C        13.3676040525        5.4855960983        5.2562674513
  H         9.7807951052        7.0426513642        4.2826242537
  H        10.2788400866        6.6409621067        2.6429703747
  C         8.5351325841        5.4327432762        3.3421989841
  H        11.8168013267        4.3654911877        1.5212986511
  C        11.9794664290        1.5285699793        0.9301130394
  H        12.0529691036        3.4967203211       14.8048147586
  H        11.3213055853        1.9772070609       15.1432586058
  C        13.2153295527        2.2742265363       15.9696728791
  C         6.7724483847        8.2864996355       16.0281855930
  H        13.0819468356        5.1101620698        6.2362422318
  H        13.5142416036        4.5945775877        4.6291174859
  C        14.7204894137        6.1420606720        5.3429539107
  H         8.1365659498        5.0407047056        4.2880992183
  H         8.8410203294        4.6403437802        2.6637702291
  C         7.5085328626        6.3975258794        2.7090782976
  C        11.7927524357        0.1390265409        0.6788783767
  C        12.4071867114        2.2704357432       -0.2749365684
  H        14.3102884592        2.4252733359       15.8340170216
  H        13.2843010592        1.2165460216       16.1164263190
  C        12.6541799395        2.8619041894       17.3513184382
  H         7.0223968346        9.3701943403       16.0325355606
  C         6.5252933167        7.8204207598       17.2932905396
  H        14.6371601298        6.9717292325        6.0340697496
  H        14.9697005680        6.5074373188        4.3777427227
  C        15.7476955294        5.1924112935        5.8489098126
  H         7.3654138350        7.2369641886        3.4275710073
  H         8.0023044906        6.8110033888        1.8184323606
  C         6.1333918047        5.7515811060        2.3206298758
  N        11.4588081503       -0.8110582539        1.6687088505
  C        12.0962948539       -0.4423313228       -0.5169495127
  C        12.7250517383        1.6281768582       -1.4639293012
  H        12.6223180987        3.2855599283       -0.1434632816
  H        11.8377949584        3.6281432057       17.2647895151
  H        13.5309723455        3.3462369530       17.7931760866
  H        12.1935945566        2.0501199445       17.9351836249
  S         6.2799307801        6.1345662118       17.6921067577
  C         6.5102005559        8.7436158341       18.4141117098
  H        15.3281693522        4.6680230480        6.7106573247
  H        15.8965258526        4.4240012157        5.1330717882
  C        17.0278056573        5.9548807350        6.1239957948
  H         6.1066253710        4.8423277213        2.8895737835
  H         6.2431564071        5.4028342184        1.3111589115
  C         4.9328384727        6.6675136712        2.5901867587
  S        11.3967576343       -2.3212081380        1.0607786988
  N        11.8724715882       -1.8549026219       -0.4230540624
  C        12.4854672154        0.1496496577       -1.7076433781
  H        13.1507207857        2.1574014246       -2.2477925262
  C         5.9604326551        6.7756752298       19.3184554572
  N         5.9793070711        8.1480896033       19.5183811637
  O         6.7506409404        9.9615656331       18.2971530572
  H        17.5104895886        6.0991693497        5.1693688471
  H        16.8033710216        6.8304105113        6.7067061530
  C        17.8288668854        5.0979552105        7.1420719225
  H         3.9968680555        6.1733557395        2.5602663364
  H         4.9806349413        7.1017258571        3.6310328477
  C         5.0338886850        7.8924156114        1.7399005774
  C        12.7323294662       -0.6949257242       -2.8087778570
  S         5.5046494193        5.7428268953       20.6687759959
  C         5.8971514042        8.8869631414       20.7499753066
  H        17.1932715884        4.8256842370        8.0087271150
  H        18.1268431536        4.1331799135        6.6674164122
  C        19.0308673321        5.9267987812        7.6190090682
  H         5.0962926587        7.6168099851        0.6734571319
  H         5.8922950168        8.5523612072        1.8997966063
  C         3.8206192911        8.8124451041        1.7921920424
  H        12.3679953100       -1.7196078388       -2.7954815162
  C        13.3041778117       -0.4813645712       -4.0252561841
  H         5.0374225936        8.6126456171       21.4354895226
  H         5.8238081125        9.9336383196       20.5505944298
  C         7.1128022332        8.8590760030       21.6965542938
  H        19.3876715158        5.5069615263        8.5847944156
  H        18.7111418881        7.0110230124        7.7123453298
  C        20.2375602143        5.9947237042        6.7296998094
  H         2.8669681382        8.2852165878        1.7833151967
  H         3.8587473570        9.2434366976        2.8138628463
  C         3.7923066013        9.8320126439        0.6532549441
  S        14.0953674199        0.9555200957       -4.6311241814
  C        13.3047445177       -1.6179748401       -4.9997951868
  H         6.9878355993        8.0589412702       22.4174242753
  H         7.4081107418        9.8331259364       22.0983027372
  H         7.9827018441        8.5569935217       21.1369923524
  H        20.0177012041        6.7778901847        5.9145365921
  H        20.9739583283        6.3885289489        7.3209194525
  H        20.6733513278        5.0735018646        6.3098387745
  H         3.2368244121       10.7062628352        0.9020692615
  H         4.7604663193       10.1070819266        0.2409692283
  H         3.2383845677        9.4868569951       -0.2448849711
  C        14.2837265246        0.1574326943       -6.1245046621
  N        13.9538779928       -1.1352337131       -6.1063298041
  O        12.8315521283       -2.7779634443       -4.8692187753
  S        15.1209011745        0.7551470788       -7.5934141250
  C        14.0285389743       -1.9460203282       -7.3345108577
  H        14.1106225700       -2.9723093700       -7.0251649080
  H        14.9485269378       -1.7793981731       -7.9250765330
  C        12.7548709161       -1.6603970633       -8.2176397834
  H        12.6426720647       -0.5137648736       -8.3401333886
  H        11.8609775470       -2.1281969057       -7.7262002902
  H        12.9974810156       -1.9529625859       -9.2505574788
