352
 i =    99600, time =    49800.000, E =        98.7545910755
  H        12.2998711201        5.1006904241       31.5033713219
  C        11.3057685950        5.1315103767       31.9359358993
  H        10.8756356305        4.1298710732       31.9372046741
  C        10.3397305344        6.0583931868       31.1498053630
  C        11.5381765057        5.4152560295       33.3978801677
  C        10.7953698037        6.1872800194       29.7307453217
  H         9.2271228820        5.7974735358       31.2275401182
  H        10.4661227552        7.0904474440       31.5150681441
  H        11.5336721456        6.4663038511       33.5644375600
  H        10.7933187738        4.8888830848       34.0831103192
  H        12.5369660111        5.0154439021       33.5667536236
  C        10.4226834678        5.0579196021       28.7854581545
  H        11.8571689409        6.2729996751       29.7984673569
  H        10.4590092065        7.0298918361       29.2047551142
  C        10.8159941760        5.3599895045       27.3194535736
  H        10.9629568766        4.1623653963       29.0420468518
  H         9.4158030454        4.7115145240       28.9149440958
  C         9.8491930529        4.7915267540       26.3401663568
  H        11.8367459910        4.9232277459       27.2116520621
  H        10.8049133178        6.4185565583       27.2942370116
  C         8.6103656384        5.7815188456       26.2297884159
  H        10.5095745795        4.4511097509       25.4686460102
  H         9.5636274212        3.7606202527       26.7162820587
  C         7.4082889454        5.1410832936       25.4716770493
  H         8.3204359840        6.0312761771       27.2078719144
  H         8.8894063179        6.7092891626       25.7333255787
  C         7.0180891202        3.8397194748       26.2196404033
  C         7.8245621686        4.3882937251       24.2272963292
  C         6.0728667875        6.0145704511       25.3810185715
  C         7.1959606015        2.7148902386       25.4286256341
  C         6.3107926497        3.5846173267       27.4480416312
  C         7.7896103013        3.0342876082       24.1938869991
  C         8.3709533136        5.0228532956       23.1029797215
  H         6.2595921860        6.8672117190       24.7951619542
  H         5.8331147828        6.4901004774       26.3066808489
  C         4.8393609770        5.2731315133       24.7327768247
  S         6.6832138925        1.2445492522       26.1448005693
  C         6.2344086634        2.1927554887       27.5583225095
  H         6.0080225092        4.3533334103       28.1333490503
  C         8.1967318088        2.3888136126       23.0669687073
  H         8.3542736932        6.1178812927       23.1019584686
  C         8.7787829187        4.3638034075       21.9861835890
  H         5.0745668622        5.0601975764       23.7203980677
  H         4.6469060838        4.2969457503       25.1163574069
  C         3.5414300759        6.1023151913       24.6749566089
  C         5.9161073721        1.5444682162       28.9215287662
  C         8.7206364545        2.9786109712       21.9484888741
  H         8.1282453757        1.3739732178       23.0986879778
  C         9.3316913345        4.7143752053       20.7335072582
  H         2.8030854155        5.6674105738       23.9896843799
  H         3.8239227790        7.0176888504       24.2798670859
  C         2.7884648005        6.3045912108       25.9588973085
  C         6.0129635021        0.1602487432       29.1460487564
  C         5.3356955447        2.3735045774       30.0390213887
  C         9.1172086532        2.2559612639       20.7733721097
  C         9.5796556425        3.5531563727       19.9786024666
  S         9.5388038195        6.1910152265       19.9315511227
  H         1.8851927926        6.9719830437       25.8432495396
  H         3.4992419264        6.8507577448       26.6400489532
  C         2.2568384537        5.0580672649       26.5191151510
  N         6.5402276629       -0.7980022256       28.2446561349
  C         5.7455723909       -0.3935954944       30.3415002636
  C         5.0840458166        1.8064000034       31.2883360004
  H         5.1418567736        3.4830197672       29.9333275052
  C         7.9763224595        1.4694976726       20.0475022402
  C        10.4242926165        1.4429734580       21.1144368135
  C         9.9398864134        3.9232565652       18.6634379566
  C         9.9403819915        5.3219813359       18.4627933537
  H         1.7403621665        4.4786460681       25.8007293996
  H         2.9480596812        4.3316374406       26.8449823215
  C         1.4777619572        5.2072253932       27.8524819417
  S         6.5259567676       -2.2052156396       29.0095663787
  N         5.7886807867       -1.7864128850       30.3370423417
  C         5.3429729433        0.3718050407       31.4979489756
  H         4.7745228406        2.3595841955       32.0933283193
  H         7.4192545295        0.7013512751       20.6325021416
  H         8.3580784633        0.8154188943       19.1830077259
  C         6.9339029216        2.3756249375       19.3629989236
  H        10.5666900047        0.9016558768       20.2576401469
  H        10.0478471082        0.8053976157       21.9455690764
  C        11.6731135263        2.2724943171       21.5305272409
  H        10.1009300288        3.1259572967       17.9633393079
  C        10.2863635629        6.0432647631       17.1148658900
  H         0.7917240055        4.3666151635       27.9500467351
  H         0.9331336872        6.1248848467       27.8164969636
  C         2.4843681564        5.1859802917       29.0008371211
  C         5.2756096811       -0.2427764577       32.7738537896
  H         7.4079753417        2.7911905315       18.4959074953
  H         6.7461070223        3.2847973229       19.8777979448
  C         5.6184031673        1.5540187467       19.0370245713
  H        11.4865783308        2.8534813409       22.4668565058
  H        11.8860524980        3.0712313578       20.7890985523
  C        13.0053954832        1.5458240341       21.6680790810
  C        10.2127119630        7.4674960639       16.8849290353
  C        10.5830761063        5.2431669952       15.8669034913
  H         3.0131505064        4.2234956043       29.0377319042
  H         3.1674604638        6.0802141722       28.9124847359
  C         2.0205326933        5.3587027131       30.4305544268
  H         5.3703470644       -1.3135672360       32.7774906122
  C         4.8149491274        0.1383719457       34.0031419182
  H         5.3342323969        0.9646815038       19.8885926422
  H         5.8021601518        0.7920013491       18.2904383111
  C         4.4893386893        2.5413287254       18.6491785551
  H        13.0275174798        0.6794980974       22.4004121070
  H        13.1409691999        1.0502059793       20.7120653504
  C        14.2527478313        2.4358856143       21.8097948870
  N         9.9437252589        8.4821438292       17.9048124398
  C        10.5953473263        8.0683138553       15.6955097937
  C        10.9640998971        5.8425706759       14.6656898725
  H        10.5468932808        4.1663853838       15.8277332568
  H         1.7164301021        6.2866441899       30.7928929363
  H         1.2386661912        4.7100498665       30.7612633018
  H         2.9705823251        5.1096975766       30.8793190312
  S         4.4241471118        1.8011207709       34.4846665081
  C         4.6851198589       -0.8325032081       35.0912350080
  H         4.0324285634        2.7338833555       19.6038722344
  H         4.7608752696        3.4832649851       18.1180964427
  C         3.4452861838        1.8068440376       17.8705939260
  H        14.0981304856        3.1023127018       22.5517679277
  H        14.2623804507        2.9945131674       20.8652363045
  C        15.4647010640        1.5561762318       22.1142899237
  S        10.3186789798        9.9577310677       17.2783490265
  N        10.6106620615        9.5154674817       15.7272835478
  C        10.9526166287        7.3648984155       14.5188602078
  H        11.3218106350        5.1875795617       13.8592357478
  C         4.2322165052        1.1258941210       36.1462014643
  N         4.3548536487       -0.2363500847       36.2775175070
  O         4.9144819896       -2.0282882972       34.9285368637
  H         3.9873003449        1.1342048922       17.1980667266
  H         2.9083906330        2.5182799335       17.2813401231
  C         2.5402891973        0.9665359677       18.7124057403
  H        15.3558314658        0.9796278238       23.0167321242
  H        15.4177183432        0.9272198524       21.1975030830
  C        16.6842234778        2.3294640930       22.1589173460
  C        11.2445048186        8.1221443392       13.3699955342
  S         3.9206156643        2.1459323094       37.5439587334
  C         4.2363405993       -1.0454501491       37.5120567234
  H         3.1674769696        0.4422065769       19.4244905580
  H         1.7986237547        1.6644127049       19.2805201967
  C         1.8234338053       -0.0756333110       17.9095109074
  H        16.6493198014        3.0755354925       22.9175382093
  H        16.7372512780        2.9268466432       21.2861679036
  C        17.9245037011        1.6432558708       22.4699678460
  H        11.0447513779        9.1850733524       13.4016779602
  C        11.8095634221        7.8125294824       12.2012199645
  H         3.3138051498       -0.8189219475       38.0674257780
  H         3.9263138372       -2.0653113972       37.3180814750
  C         5.5312261831       -0.9840238976       38.3004040310
  H         1.2851311439        0.3800869847       16.9988004305
  H         1.0178127898       -0.4693223280       18.5663700855
  C         2.8534929398       -1.1722859264       17.4731497026
  H        18.0020686597        0.7031990893       21.9239998199
  H        18.7099685143        2.3273848814       22.0413935356
  C        18.0670183870        1.3680923371       24.0003009713
  S        12.3235946041        6.1789183669       11.7794117550
  C        11.8702243100        8.7811503280       11.0948880457
  H         5.4396705688       -1.6870144503       39.0446597304
  H         6.3575189657       -1.2716132046       37.6353013368
  H         5.6732675150       -0.0587610620       38.7559978197
  H         3.5227766987       -0.8007244543       16.7100658488
  H         2.3349007517       -1.9225736487       16.9665082452
  H         3.4004962246       -1.5890325850       18.3068657907
  H        19.1762952821        1.0563088793       24.1710903599
  H        17.4987991452        0.4829326231       24.2088416316
  H        17.6075464840        2.1464368799       24.5262884366
  C        12.5350079033        6.8262571902       10.1578237143
  N        12.3480226041        8.1442625240       10.0113386562
  O        11.3203462033        9.9087006476       11.1605758355
  S        12.9319403372        5.8024069111        8.7644228337
  C        12.3941236814        8.7629486708        8.6932751891
  H        12.5172548392        9.8189033956        8.8001342007
  H        13.1522248405        8.3843464701        8.0342987139
  C        11.0051088815        8.6544071088        7.9773853395
  H        10.4334201033        9.5609563053        8.1162876417
  H        11.1153267828        8.4985456800        6.8872718289
  H        10.4683741404        7.8165666775        8.4115095672
  H         2.2144097906        3.4342148800       12.4032889152
  C         2.6467652202        2.4888119313       12.6652955699
  H         2.1442145459        1.7587688449       12.0449696032
  C         4.1843257688        2.4721308910       12.4229100216
  C         2.2779076526        2.2442546973       14.1955995327
  C         4.5340494374        2.5745988868       10.9448061967
  H         4.7731124545        1.6707497576       12.9740298246
  H         4.5903052729        3.4741781573       12.7669995139
  H         3.1504740105        2.3164163682       14.8280051039
  H         1.9418232260        1.2119258252       14.2912189134
  H         1.4994592795        2.8991735342       14.6708228575
  C         5.0102875541        1.2787176991       10.3374333973
  H         3.6319358807        2.8412665819       10.4080458906
  H         5.2659639594        3.3255144882       10.7498427853
  C         5.2881197767        1.4851323874        8.8478167806
  H         4.3111004811        0.5264299028       10.4379239946
  H         5.8798371218        0.8924951487       10.8802524103
  C         6.5455363059        2.1280234356        8.4853988225
  H         4.4848990283        2.1106716273        8.4279346958
  H         5.3699057474        0.5225267035        8.4055420580
  C         7.8255526680        1.5520344348        8.9595078018
  H         6.5545149469        2.1554403078        7.4621595124
  H         6.4226957050        3.1731989980        8.8646209948
  C         9.0017619715        2.4985674547        9.1399671666
  H         8.2181623486        0.7617579358        8.3884294139
  H         7.7379734248        1.1960615281        9.9590303464
  C         8.4564077390        3.8163758048        9.7298201365
  C         9.4013745774        3.1523112821        7.8476565645
  C        10.1949159306        1.8731530807        9.9089682879
  C         8.7097037917        4.9020691226        8.9259703168
  C         8.0373408141        4.2312226261       11.0151392521
  C         9.2397672329        4.5123774278        7.7034553753
  C        10.0227888545        2.6112131846        6.7246990331
  H         9.9279158796        1.0853970787       10.7021680420
  H        10.7077634562        1.2024276813        9.1413801410
  C        11.2572067552        2.7995465687       10.5328714948
  S         8.2407638465        6.4275897077        9.6072782984
  C         7.8976441834        5.5661630267       11.0883788448
  H         8.0233686764        3.4280663758       11.8082117280
  C         9.6702117392        5.1728804637        6.6079724407
  H        10.3297844906        1.5612137184        6.8419468833
  C        10.3951298313        3.2766789751        5.5446863867
  H        10.9937197596        3.7614150561       11.1122829618
  H        11.7116811817        3.2190130805        9.6645886043
  C        12.3140374912        2.0646483667       11.2941025700
  C         7.5318943062        6.2917520988       12.3497658976
  C        10.2888465723        4.5936224946        5.4851972350
  H         9.5215215409        6.2325661922        6.5137846671
  C        10.9231312677        2.8431131269        4.3336090947
  H        13.2126858643        2.7213148920       11.3465744153
  H        12.8736637967        1.2183293176       10.8092871461
  C        11.8766327595        1.8031081049       12.6719563755
  C         7.7724946978        7.6812728926       12.6125090982
  C         7.0746743506        5.4941633091       13.4979222444
  C        10.8098526843        5.2659378679        4.2686714631
  C        11.1783486034        3.9701727372        3.5831102254
  S        11.2193859927        1.3063722358        3.5924091386
  H        11.4303366642        2.7296386016       13.0397558280
  H        11.0221745082        1.1279784823       12.7500825841
  C        12.8876497536        1.4135278915       13.6900062165
  N         8.0834549020        8.6044529840       11.6095081863
  C         7.5724065816        8.2324127303       13.8595608338
  C         6.8836785082        6.0563950852       14.7707992171
  H         6.8008084498        4.4128347654       13.3756998493
  C        12.1122556767        6.0391701793        4.5629539927
  C         9.7763269485        6.1126137844        3.4539600052
  C        11.7211105489        3.5598363967        2.2857700692
  C        11.7360425757        2.2016788783        2.1664342711
  H        13.5818411966        2.1693958961       13.8059032436
  H        13.4935344117        0.5496864597       13.4021417056
  C        12.2231789710        1.2434502143       15.0773637007
  S         8.2719166162       10.0784956836       12.3184895280
  N         7.8363675512        9.5754531848       13.8532743125
  C         7.1964784805        7.4869607643       15.0401522031
  H         6.5269389892        5.3986834060       15.5278557034
  H        11.9369493697        6.8738588120        5.2593412023
  H        12.3863577027        6.5667061650        3.6607727376
  C        13.3275948234        5.2149854528        4.9951018348
  H         9.5055421948        6.9275996356        4.0509461086
  H        10.2897895147        6.5046915993        2.5188029974
  C         8.5111630562        5.3478664834        3.0173222786
  H        12.0072804405        4.3647531014        1.6134894422
  C        12.0852650955        1.5086225677        0.8969457705
  H        11.1947747517        1.3583519444       15.1589797026
  H        12.2561278178        0.2060963049       15.2793923630
  C        13.0431941271        1.9380868396       16.1413682144
  C         6.9863110936        8.2077973839       16.2559929485
  H        13.1376922810        4.5109304527        5.8394632254
  H        13.5731617457        4.6555871990        4.0975981650
  C        14.5355732981        6.1386078070        5.1513491295
  H         8.1364278064        4.7793807604        3.8725079436
  H         8.6510865213        4.6334029240        2.1979660795
  C         7.3315112575        6.2334941303        2.6762906046
  C        12.0299262274        0.1365544977        0.6542108008
  C        12.3432461763        2.3052025612       -0.3186981799
  H        12.8102049529        2.9824696114       16.0156705179
  H        14.1265755777        1.6648849897       15.9844844843
  C        12.5511027665        1.5697782895       17.5198109182
  H         7.1970116944        9.2812159688       16.2362796637
  C         6.8140494338        7.7395685617       17.5516156367
  H        14.3572564632        6.7670487982        5.9934138481
  H        14.6901115174        6.6998440649        4.2317293196
  C        15.7465197285        5.3419254401        5.3765399483
  H         6.6707463667        6.5166340961        3.5209937879
  H         7.7457220808        7.2075110191        2.4166696937
  C         6.3830001771        5.7384400656        1.4981024340
  N        11.6790887552       -0.8546609013        1.6181448538
  C        12.4381602271       -0.4679317124       -0.5007875197
  C        12.4865632340        1.7243131752       -1.5978463023
  H        12.3696509182        3.3642360202       -0.2129721272
  H        13.0129260595        2.2043778655       18.2356873040
  H        12.7921479355        0.5239114860       17.6288824674
  H        11.4870513367        1.6774894275       17.5779207565
  S         6.4932359098        6.1029894249       18.1172022615
  C         6.7004569183        8.8255507995       18.6246411263
  H        15.5660876223        4.3933784565        5.8013373258
  H        16.2205617554        5.2596630051        4.4470839812
  C        16.7916240223        5.9845954597        6.2443834984
  H         6.0007498294        4.7473365248        1.8318841710
  H         6.8580365529        5.6613589684        0.5677006332
  C         5.1723441223        6.6139423709        1.2394615444
  S        11.8291670805       -2.3854662511        0.9513408339
  N        12.2812566700       -1.8408856438       -0.5078996300
  C        12.6278376059        0.2488885132       -1.6953567181
  H        12.5909826928        2.3148986442       -2.4602776559
  C         6.2280848868        6.8795282652       19.7088829863
  N         6.2858513728        8.2356907187       19.8106400132
  O         7.1105710863        9.9723631670       18.4908820291
  H        17.2128067689        6.8037205358        5.6194405761
  H        16.3932589563        6.5141675991        7.1209270513
  C        17.8321182366        4.9365942146        6.7412431436
  H         4.6440658460        6.1129785215        0.3967023744
  H         4.6457310396        6.6554725505        2.1617483691
  C         5.4503061117        7.9858372805        0.6803142354
  C        12.9524672288       -0.4780179510       -2.8848401084
  S         5.7945832116        5.9707429218       21.0971663328
  C         6.4427866530        8.9962592284       21.0267661718
  H        17.3343974683        4.1795050363        7.2899420414
  H        18.3070346704        4.4593043808        5.8846451330
  C        18.8581091061        5.5408516005        7.6350308408
  H         5.5856880960        7.9311774311       -0.3923774399
  H         6.4501403035        8.3314013869        1.0584813706
  C         4.3699291243        8.9902960866        0.9416726396
  H        12.7188652886       -1.5308299168       -2.8648244901
  C        13.5274329268       -0.0551481928       -4.0627498222
  H         5.7804645756        8.6012971886       21.7536169386
  H         5.9931408075        9.9742051657       20.8451171550
  C         7.9051534555        9.1961435447       21.6027853835
  H        18.9435022450        4.9194462507        8.4452076772
  H        18.4058257106        6.4958165296        8.0009956554
  C        20.1071231643        5.8986494700        6.7909314862
  H         4.5081622169        9.7468412219        0.1836256078
  H         3.4205269938        8.4980337525        0.6780387446
  C         4.2754604950        9.4713849903        2.3842275653
  S        14.0907498514        1.5082407173       -4.5676929252
  C        13.6414734709       -1.1415402670       -5.0645149621
  H         8.4112599159        8.2086288432       21.7293527963
  H         7.9904644923        9.6664905762       22.5553280989
  H         8.5220368676        9.7860523277       20.9141464379
  H        19.8650827483        6.6026951974        6.0625663821
  H        20.8676289623        6.4076134798        7.3680209338
  H        20.5984670364        4.9994257101        6.3002276055
  H         3.9695466519       10.4511764354        2.2811196819
  H         3.4698653761        8.9254798811        2.9383006627
  H         5.2218156401        9.6308213329        2.8332662643
  C        14.3580782900        0.7153993842       -6.1158676232
  N        14.2368816468       -0.6665751197       -6.1680627224
  O        13.1983874645       -2.2994513269       -4.9169635824
  S        15.2111638026        1.3963983531       -7.4913308742
  C        14.2871318634       -1.5278878172       -7.3906050324
  H        14.5101285702       -2.5636525997       -7.1384441407
  H        15.0300733557       -1.3286248555       -8.0570200533
  C        13.0080143150       -1.3757444176       -8.3028484185
  H        12.3012486069       -0.7948711516       -7.7561482422
  H        12.4790731991       -2.2428151337       -8.5943024003
  H        13.3183171101       -0.7888519606       -9.2289753768
