352
 i =    75300, time =    37650.000, E =        98.3618045238
  H        12.5010109047        6.5365261306       32.1290112704
  C        11.7856088993        5.7009508112       32.2178268218
  H        12.3496611279        4.7959561227       32.0010454905
  C        10.6646564155        5.9511925315       31.2311697147
  C        11.2953378594        5.4570773972       33.6417597536
  C        11.2183334949        6.3041303141       29.8692938999
  H        10.2935894673        4.9339634188       31.1976144752
  H         9.9532027916        6.6416230489       31.5807529955
  H        10.7240180746        6.3469149746       33.9049586816
  H        10.6186400671        4.5607355026       33.6419248218
  H        12.1878824595        5.4973036321       34.1642351628
  C        10.1660951718        6.1480748387       28.7502737325
  H        12.0927148525        5.6961400042       29.6599902541
  H        11.5640861992        7.3867084689       29.9205733310
  C        10.7147473274        5.8629398753       27.3505202280
  H         9.5623011512        5.1932515621       28.9646099985
  H         9.5582276964        7.0219576782       28.7440359172
  C         9.7561345783        4.9117693250       26.6198840602
  H        11.5871158987        5.2607452337       27.6873716688
  H        10.9998730519        6.8396629761       26.8910816545
  C         8.5404200692        5.7567275188       26.1046296235
  H        10.3768438032        4.4060785238       25.7697504781
  H         9.3473581517        4.0692167811       27.2489771334
  C         7.4429197151        5.1206384147       25.1876102357
  H         7.9358825161        6.1668523525       26.9113388497
  H         8.9057615775        6.7031325698       25.6608510880
  C         7.0396840903        3.8177635768       25.8888797043
  C         7.8579577555        4.4442861297       23.9536439708
  C         6.1601073152        6.0725380930       25.1345397034
  C         7.2519504634        2.7486598297       25.0780835877
  C         6.6038230544        3.5240779399       27.2054100442
  C         7.7832904235        3.0905655118       23.8587161106
  C         8.3313354651        5.0969137073       22.8082237596
  H         6.3717520176        7.1167682534       24.8631458317
  H         5.8016993845        6.1288918818       26.1845445844
  C         4.9202910052        5.5173094955       24.4782262595
  S         6.9338810102        1.2826307147       25.9080755657
  C         6.4151172975        2.1667495295       27.3363892333
  H         6.5274965035        4.3249650699       27.9241090254
  C         8.2558467524        2.4424756526       22.7501918152
  H         8.3161564076        6.1931090064       22.8167091024
  C         8.6649388743        4.4134847665       21.6570794766
  H         5.1525123104        5.4207446493       23.4167619649
  H         4.6250972769        4.5932006655       24.9016052331
  C         3.7044235451        6.4746776831       24.5748197733
  C         6.2033384385        1.3975472695       28.5987125220
  C         8.6514438767        3.0713326203       21.5824714697
  H         8.0712978861        1.3933276043       22.6614229222
  C         9.1497497670        4.8077538343       20.4216952794
  H         2.8915755366        6.1313589909       23.8046725477
  H         3.9667636194        7.4284842801       24.1644266671
  C         3.1049749982        6.6676686631       25.9684227470
  C         6.2892288194        0.0410581866       28.8253739300
  C         5.9370355220        2.1967344395       29.8473312453
  C         9.0869870885        2.3808025373       20.3802185144
  C         9.3459065510        3.7013328213       19.6093236672
  S         9.3853007101        6.3468120584       19.6954317247
  H         2.1538697599        7.2954342796       25.8202295455
  H         3.8750709779        7.1775839706       26.5002947013
  C         2.6405945949        5.4318440637       26.7383785871
  N         6.5624932592       -0.9298681020       27.8251143596
  C         5.9493118285       -0.5667881997       30.0397936945
  C         5.6573846598        1.6217568481       31.0760623734
  H         6.0300519026        3.1907637590       29.8181612452
  C         7.9557431743        1.5468533405       19.7504801314
  C        10.4268647214        1.6205291515       20.3944130631
  C         9.6334218698        4.1224391444       18.3145798171
  C         9.6967017752        5.5100853416       18.1816040032
  H         1.8058913614        4.9045872534       26.2399147230
  H         3.4425090857        4.7114147582       26.7950042622
  C         2.1142687444        5.6690949574       28.1222176669
  S         6.4680410785       -2.4146325300       28.4821128449
  N         5.9407913078       -1.9386752691       29.9449704937
  C         5.6769544758        0.1625522993       31.2188559976
  H         5.6536554717        2.2780060330       31.9224727591
  H         7.6947602739        0.8261496166       20.4706036464
  H         8.1604751232        0.8421275378       18.9408829393
  C         6.7332733153        2.4461707127       19.4187948972
  H        10.5602554567        1.1160141555       19.4217521438
  H        10.3342028986        0.8585782010       21.1562416730
  C        11.6634237751        2.3372565052       20.8479473933
  H         9.8115396227        3.4810778372       17.5091772877
  C        10.0310202594        6.2538215744       16.8756945407
  H         1.4770096333        4.8125440532       28.4376839332
  H         1.4069506251        6.5088800131       28.1122710619
  C         3.1490027170        5.9519968502       29.1843988894
  C         5.4964293224       -0.5972790051       32.4627367347
  H         7.0090448071        2.9337365570       18.4237536680
  H         6.4945054825        3.2427325198       20.1029809521
  C         5.4570564203        1.5462204789       19.1215710026
  H        11.6211477159        2.7895105334       21.8110970683
  H        11.9293624271        3.1963219555       20.2701489008
  C        12.8637028543        1.4022390827       20.8093097428
  C        10.2753901070        7.6062727259       16.7687988812
  C        10.2708981178        5.5262128534       15.5382218318
  H         3.8266636444        5.1143099521       29.3362121679
  H         3.8385668453        6.7631581226       28.9063826194
  C         2.4574628643        6.1597445806       30.5555633618
  H         5.5021503206       -1.6608171204       32.3719363876
  C         5.2069736552       -0.1943747051       33.7008070469
  H         5.0159745085        1.3390837419       20.1003189739
  H         5.7811739195        0.6751586624       18.6108487797
  C         4.5213510852        2.3453392279       18.3002844646
  H        12.7442670785        0.6713210387       21.5457450546
  H        12.9303289246        0.8454603525       19.7938584316
  C        14.1157878348        2.1159755864       21.2278349037
  N        10.0319883009        8.4771934811       17.8406498829
  C        10.6480679647        8.3343068072       15.6696703003
  C        10.6382519198        6.2336663141       14.3465188941
  H        10.2466886865        4.4584820873       15.5334103995
  H         1.6485020338        6.9100683886       30.3489771606
  H         1.8021657481        5.3612578627       30.8577796556
  H         3.1011172584        6.5668782508       31.3684863786
  S         4.8223633570        1.3908193368       34.1653830656
  C         5.0754562151       -1.0705632555       34.8992584037
  H         4.2797881935        3.2169257334       18.9322565904
  H         4.8238780179        2.6480400139       17.2986002720
  C         3.1326698882        1.7059961033       18.1444474770
  H        14.2034752191        3.1542709937       20.9385336064
  H        14.9413259332        1.6200584081       20.7163977549
  C        14.3543677000        2.0252755015       22.7002436783
  S        10.1619335575       10.0285018705       17.3553353552
  N        10.7587614785        9.7444549883       15.9169269522
  C        10.8029397415        7.7331413190       14.3604330416
  H        10.9600725821        5.6828845811       13.5160592855
  C         4.7204945030        0.9577203063       35.8156542227
  N         4.7627687294       -0.3806193013       35.9621142458
  O         5.2145664123       -2.2953252116       34.7991283920
  H         2.4135328862        2.4239571922       17.8198723417
  H         2.7402495765        1.3948036146       19.0649843266
  C         3.1617578266        0.5171752923       17.2118177364
  H        13.4434156696        2.0448616995       23.2878199252
  H        14.8094908023        1.0889325975       22.8239646737
  C        15.2895512112        3.0775804185       23.2336894242
  C        11.2562474535        8.5914271584       13.3554381116
  S         4.1648278101        1.9308662723       37.1208610079
  C         4.7959661045       -1.0573852119       37.2891826488
  H         3.1543888180        0.7921575813       16.1082851672
  H         4.1011472368        0.1102654156       17.4893669045
  C         1.9823390226       -0.3712236621       17.3869839481
  H        15.1438854221        3.0881034845       24.3333553653
  H        14.9480546115        4.1056787681       22.9515102650
  C        16.6822594072        2.9628375509       22.6179167242
  H        11.2819618522        9.6860217201       13.5544195968
  C        11.7427816290        8.3728096916       12.1066439427
  H         4.0757218689       -0.7040988604       37.9703257410
  H         4.5022725129       -2.1433733990       37.1447183887
  C         6.1767722830       -0.9579409370       37.8811582722
  H         1.3543761738       -0.4996094647       16.4753981130
  H         1.2420310797       -0.0546608842       18.1730417327
  C         2.3216702331       -1.8214972901       17.8180950296
  H        16.6958772770        2.6375575661       21.5934262973
  H        17.1857590937        3.8848679841       22.5271576390
  C        17.4998469866        1.9599627851       23.4737706779
  S        12.1505854956        6.8042059445       11.4792572583
  C        11.8812079225        9.5495264483       11.2264624220
  H         6.3770069529       -1.6774266262       38.5896804722
  H         6.9661629962       -0.9610700431       37.1370030319
  H         6.3248514411       -0.0273154192       38.3887286656
  H         2.7128668113       -2.3373141475       16.9477786909
  H         1.4261233086       -2.3163949969       18.2138285109
  H         2.9995135942       -1.8821167891       18.6457549104
  H        18.5602536068        2.0043453890       23.2036054204
  H        17.0342337492        0.9689803625       23.4756665864
  H        17.5203623734        2.2800442393       24.5219607153
  C        12.4501152024        7.7230337945        9.9976755905
  N        12.2931891513        9.0987278312       10.0397317427
  O        11.5100205400       10.7176992934       11.4834399184
  S        12.7534490215        6.9511639151        8.4776393451
  C        12.4909972416        9.9105649598        8.9058604495
  H        12.8544423132       10.9145325876        9.1955523185
  H        13.3653077063        9.4527301288        8.3896168895
  C        11.1652747903       10.0338054455        8.0388589316
  H        10.3459344914        9.5264021172        8.5098279724
  H        10.8052349272       11.0250628700        7.8387357280
  H        11.3050350991        9.6438171176        7.0199617248
  H         2.4155324625        2.0345608726       13.5018208085
  C         3.3712881290        2.3071946575       13.1012982437
  H         3.8032220836        1.3488471687       12.8051765494
  C         3.1336659076        3.0413625425       11.8091689380
  C         4.1342341184        2.9915775177       14.2509485411
  C         4.4473384351        3.1153740018       11.0259124254
  H         2.5569282464        3.9385914446       12.0178433844
  H         2.4414338930        2.5227808868       11.2061923183
  H         4.7388639500        2.2609924110       14.8252210772
  H         3.4531793782        3.4597276326       14.9637924214
  H         4.8193836002        3.7519406703       13.8153655881
  C         4.9410320344        1.8294565187       10.2928735330
  H         4.4201512464        3.8610362944       10.3229296038
  H         5.2620410277        3.4378747746       11.6598034580
  C         5.3950465545        2.0204453131        8.8759402820
  H         4.0953554459        1.0362863042       10.3013046776
  H         5.7521965008        1.4112827954       10.9214667107
  C         6.7365613442        2.7418052136        8.6479032689
  H         4.5952869179        2.5191117005        8.3206173061
  H         5.5246916923        1.0691600543        8.3780730980
  C         7.9532287899        1.9926515426        9.1625957350
  H         6.7230690556        3.1258830192        7.6350194819
  H         6.4356778745        3.5461908474        9.2957154108
  C         9.1948765886        2.9191945715        9.0593795538
  H         8.0089943298        1.0792411449        8.6019208341
  H         7.7393339144        1.7150441206       10.1582954205
  C         8.8369895793        4.2492993253        9.7222052161
  C         9.6267692104        3.5892270584        7.8045155764
  C        10.3974285109        2.2200333100        9.6445281150
  C         9.1919912547        5.3342669374        8.9583544521
  C         8.3702118092        4.6497683905       10.9552772168
  C         9.7224987337        4.9149804135        7.7432449394
  C        10.1338095778        2.9614282624        6.6517229236
  H        10.0237525927        1.6925354636       10.5358319253
  H        10.8166627807        1.4496121795        8.9223508008
  C        11.6584694630        3.0256172305        9.9138013929
  S         8.8362616242        6.8732502195        9.7650354762
  C         8.2105446898        6.0186331265       11.0925071296
  H         8.0731099401        3.8571792247       11.5572412265
  C        10.2708460517        5.5258114186        6.6365146795
  H        10.0710958577        1.8822617201        6.5327345487
  C        10.5947448549        3.5907408204        5.5223987149
  H        11.3167246022        4.0555402402       10.2086628910
  H        12.0756701885        3.1994305142        8.9213536838
  C        12.6563631273        2.4224972284       10.8700726014
  C         7.9417152470        6.7190214569       12.4122228561
  C        10.6797664276        4.9250962137        5.4573862872
  H        10.3035457836        6.6062943551        6.7358692528
  C        11.1018261008        3.1817209753        4.2881509158
  H        13.5822937160        2.9285169437       10.8973106956
  H        12.7946775140        1.3598889452       10.6783547252
  C        12.2160120203        2.4332618022       12.3086127012
  C         7.9134130076        8.1374695346       12.6829741966
  C         7.5525503508        5.8226937451       13.5331931951
  C        11.1505137060        5.5805927758        4.2037954338
  C        11.4244392061        4.2710310775        3.5095141634
  S        11.2847166561        1.6404222162        3.5303696504
  H        11.9439017716        3.4475596059       12.5614101745
  H        11.4494920080        1.7209553265       12.5938932704
  C        13.4765859746        2.1213288981       13.0888629176
  N         8.3028174506        9.1891738134       11.8102633514
  C         7.6406342258        8.6195795031       13.9383517537
  C         7.2255259889        6.3950501705       14.7448223129
  H         7.5162523882        4.7799585539       13.4468092888
  C        12.3539609872        6.4632427086        4.4738375064
  C        10.0402302550        6.3808802385        3.4559634893
  C        11.8112651729        3.8692988738        2.2205766850
  C        11.7531288483        2.5220822882        2.0883604933
  H        14.0303687680        3.0297562548       13.3340163892
  H        14.1799260739        1.5053560564       12.5263740048
  C        13.1542453445        1.4669796232       14.3930666604
  S         8.2102632756       10.5961093491       12.5806034724
  N         7.8544145820        9.9786842822       14.0492530061
  C         7.1776201599        7.8242117540       14.9878457018
  H         6.8062404340        5.7003125703       15.4563595435
  H        12.1616164343        7.3092388467        5.1602296144
  H        12.5994424763        6.9136289433        3.5790031276
  C        13.4545246465        5.6729807375        5.1510736082
  H         9.7480925551        7.2059367069        4.0760869777
  H        10.4515088100        6.7706868250        2.5210396074
  C         8.7801367957        5.5213815021        3.2489826869
  H        12.1167304808        4.5432471253        1.4887464038
  C        11.9348659667        1.7809849379        0.7560980247
  H        12.5121197345        0.6190646799       14.3445709522
  H        14.0862063327        1.2189207093       15.0072406865
  C        12.3234355210        2.3921970054       15.3220263919
  C         6.9900824230        8.5003895296       16.2309634777
  H        12.9888234520        5.2579612418        6.0481592126
  H        13.8026519410        4.8092909661        4.5139335932
  C        14.6361815499        6.5242620272        5.5040408407
  H         8.3420124320        5.2015776343        4.1830770631
  H         9.1037603967        4.6469395614        2.5788580412
  C         7.6851794705        6.3128720159        2.5277886260
  C        12.0486691581        0.3796073177        0.6557400212
  C        11.9561865757        2.5009558108       -0.5456523903
  H        11.2273434498        2.2939693940       15.1450994350
  H        12.6342364099        3.3713442869       15.0849365480
  C        12.7073100205        2.2262592411       16.7754126504
  H         6.9281026425        9.5766515153       16.1160850067
  C         6.7963938901        8.0288017200       17.5049214152
  H        14.3273876332        7.2927560898        6.2397589502
  H        14.9602195556        7.0070061131        4.5926109734
  C        15.7178336913        5.5717734969        5.9648165830
  H         7.3283271246        6.9362284067        3.3843294347
  H         8.1084823361        6.8594309792        1.6969846956
  C         6.5288266270        5.4654644775        2.0120594983
  N        11.8917579130       -0.5741840690        1.6344750098
  C        12.2626367683       -0.2847300013       -0.5405614714
  C        12.2349029763        1.8767200346       -1.7221357736
  H        11.7552057361        3.5922611197       -0.5454656437
  H        13.7151507519        2.2029644248       16.9502193687
  H        12.2904403036        1.3220998890       17.2007626205
  H        12.2842790090        2.9634488321       17.4414957810
  S         6.4328705879        6.3845047970       17.9104215650
  C         6.7392580198        9.0434967304       18.5956157256
  H        15.3290525247        4.7273324047        6.5654568541
  H        16.1938017811        5.1826761420        5.0927268033
  C        16.7162096169        6.3705829560        6.7368739461
  H         6.3594588122        4.6972977611        2.7714569990
  H         6.7479400823        5.0032765300        1.1294506606
  C         5.2254287166        6.2001077042        1.9927417950
  S        12.1532927336       -2.0655437977        1.0658025650
  N        12.3009555213       -1.6798447122       -0.4604159659
  C        12.4791522932        0.3773838877       -1.7580925304
  H        12.3232014808        2.5396916807       -2.5930884500
  C         5.9981256858        7.0743932630       19.5060552812
  N         6.2841433760        8.4087407681       19.7096701692
  O         6.9027099623       10.2821579148       18.4435120514
  H        17.0120185824        7.1208286411        6.1004501740
  H        16.2726376443        6.9016202417        7.6267335412
  C        17.9350518234        5.4902610612        7.0394873305
  H         4.6464069332        5.8686396848        1.1232882437
  H         4.5074175363        6.0051785037        2.8196518123
  C         5.3828038522        7.7688417449        1.8552187146
  C        12.7173171712       -0.3061208450       -3.0225838921
  S         5.7526685043        6.0896028132       20.9112819417
  C         6.1539422456        9.0348323937       21.0348593226
  H        18.0148900676        5.1765188879        8.0500979201
  H        17.7860414216        4.5577010454        6.4926815593
  C        19.1495604461        6.3659692673        6.7446413910
  H         6.0626393490        8.0482511954        1.0907408865
  H         5.7157033862        8.1601899486        2.8226416059
  C         4.0586090137        8.4256592232        1.4572656887
  H        12.5268149870       -1.3045121538       -2.9221978588
  C        13.3017662005        0.0585310231       -4.1907026627
  H         5.3039409018        8.5629153283       21.5188258596
  H         5.9323382504       10.1148708882       20.8941312020
  C         7.4511289813        8.9682562574       21.8340626992
  H        19.7203216085        6.3168218805        7.6672834142
  H        19.0803403105        7.3616733067        6.6739914538
  C        20.1102671148        5.8792595375        5.6733431721
  H         3.6533747849        8.0742046731        0.5118662661
  H         3.2636406880        8.2406347675        2.0906212151
  C         4.2496513303        9.9151639206        1.3729896043
  S        13.6721744468        1.6170425932       -4.7502047437
  C        13.5691386233       -1.0139939334       -5.2846289790
  H         7.2452512505        8.2170862461       22.5805388285
  H         7.7221679299        9.9669730488       22.2387247147
  H         8.2538761806        8.5624495072       21.2526761727
  H        20.9075764201        5.2347959703        6.0221000373
  H        19.5219519754        5.3809776862        4.8853887213
  H        20.6304311159        6.6718550905        5.1954955127
  H         4.9574852327       10.0699472879        0.5766697709
  H         3.2348430600       10.3153986001        1.1641627296
  H         4.7710887218       10.3538260423        2.2349667692
  C        14.1153212752        0.9397621829       -6.2879665243
  N        14.1431566344       -0.4084444920       -6.3523914578
  O        13.3026028276       -2.2300403151       -5.1120344147
  S        14.8864976651        1.7822833880       -7.6648407930
  C        14.3423146465       -1.1821353634       -7.5905188163
  H        14.5383281187       -2.2054135364       -7.1532308059
  H        15.3208749551       -0.9993126259       -8.0136933603
  C        13.1324428710       -1.2273032751       -8.4932600216
  H        12.2797750900       -0.8484576768       -8.0226290278
  H        12.9791181548       -2.3355757597       -8.6655232519
  H        13.2385240034       -0.7603030149       -9.4503865374
