352
 i =    76000, time =    38000.000, E =        99.2182106332
  H        12.4965412417        6.4720548208       32.6037311865
  C        11.6632359260        5.7831697927       32.5487541970
  H        12.2863390849        4.9206269793       32.3808310163
  C        10.7020732372        6.2071252552       31.4540536789
  C        10.9597899673        5.8853848393       33.9036263889
  C        11.3331738216        6.0271972375       30.0339989321
  H         9.8795650462        5.4818019463       31.4816297587
  H        10.5206152915        7.2176248989       31.6696348885
  H        10.1408882299        6.5681683941       33.9471261931
  H        10.5969303048        4.9610027035       34.2357262908
  H        11.7574367888        6.3553164432       34.5093426859
  C        10.3220907146        6.0891596994       28.9627730505
  H        11.8572518560        5.0338401513       29.9121389464
  H        12.0993441034        6.7294670587       29.8269511485
  C        10.9522880824        5.8364189088       27.5839490658
  H         9.4662197019        5.4893943018       29.2777050202
  H         9.9048168989        7.1261683937       29.0738903464
  C         9.9915241788        5.0051529629       26.7624355902
  H        11.9405719897        5.4206753813       27.7406580571
  H        11.0859629422        6.8010537488       27.0795032585
  C         8.7731378031        5.9017881701       26.3620268143
  H        10.4280057125        4.5109997619       25.8779695335
  H         9.6416968022        4.2188634621       27.5233804438
  C         7.6566318974        5.2045498576       25.5713108569
  H         8.3112153875        6.3122848757       27.2858836725
  H         9.2075370142        6.6602273002       25.7722938049
  C         7.2407983431        3.9328657874       26.3027438264
  C         8.0242860532        4.4417280144       24.3199119256
  C         6.3904182164        6.0378955639       25.2868492934
  C         7.3695245190        2.8077697379       25.5490853555
  C         6.6886970973        3.5964053589       27.6339785021
  C         7.8629959996        3.1366092274       24.2726023262
  C         8.5505161585        5.0062237151       23.1425655860
  H         6.6713736486        6.9021210837       24.6435514286
  H         6.0542714283        6.5567626976       26.2161252058
  C         5.1163052435        5.3978898480       24.8975375979
  S         6.8262075621        1.3806846462       26.3297545961
  C         6.4215571214        2.2785979924       27.7254410915
  H         6.6237640030        4.4630561852       28.3594006848
  C         8.1411619065        2.4417714785       23.1466767683
  H         8.7580074855        6.0537412831       23.0796195433
  C         8.8798666378        4.3487269190       22.0183041050
  H         5.2192608171        4.9049599667       23.9731513632
  H         4.8033706641        4.6926889871       25.6915533033
  C         4.0165574235        6.4429879962       24.8084981197
  C         5.9184303859        1.5616329682       29.0261027430
  C         8.7070408474        3.0073177672       21.9782148737
  H         7.9086544857        1.3549814611       23.1040799128
  C         9.2166621638        4.6322185626       20.7197715776
  H         3.3470512869        6.2466816912       24.0101099020
  H         4.3184220001        7.5670104718       24.5976820525
  C         3.2963067720        6.5082905503       26.1859517110
  C         5.9082613584        0.2047100206       29.2619216688
  C         5.5864544383        2.3742678526       30.2281799773
  C         9.0515878072        2.2446660485       20.6942354888
  C         9.3101458188        3.5608725931       19.8955302427
  S         9.5992473556        6.0855905366       19.9835658357
  H         2.6895963819        7.3890752134       26.1767134406
  H         4.0557017494        6.6706853404       27.0014865355
  C         2.3663476176        5.2985452237       26.4004610281
  N         6.2021406383       -0.7308676674       28.2564490933
  C         5.6519432898       -0.4030847198       30.4817584436
  C         5.1341453613        1.7646566080       31.4325555859
  H         5.5039549856        3.4486936588       30.1937756745
  C         7.8731543176        1.5558644792       20.0398138024
  C        10.2370924369        1.2933366336       20.7929903637
  C         9.5749879145        3.9270676866       18.5799001036
  C         9.6725492683        5.2957310065       18.4526412984
  H         1.5248430684        5.2809571569       25.7558818046
  H         2.8374423494        4.3469520041       26.1861143107
  C         1.6357692345        5.2592724922       27.7239599985
  S         6.3191886440       -2.2023732251       28.9503053768
  N         5.7865309114       -1.8142424928       30.4527300148
  C         5.2406404061        0.3549290616       31.6532919885
  H         4.8026750819        2.3737737110       32.2515189148
  H         7.6359372233        0.7593047734       20.7336987632
  H         8.2034787512        1.1685419778       19.0985288976
  C         6.5455328434        2.2815632507       19.9450930838
  H        10.4949019553        0.7420493727       19.8867314847
  H         9.9739435815        0.5454448039       21.5339255905
  C        11.5463899091        2.1402014100       21.1409216297
  H         9.7825232529        3.1209167650       17.8272932004
  C         9.9973507168        6.0595736689       17.2342662504
  H         1.0959863922        4.3495491985       27.8583335327
  H         0.9459597746        6.0305872264       27.7037293331
  C         2.5401834291        5.3185469614       29.0224687597
  C         4.9703717773       -0.3081041756       32.9098630145
  H         6.7523193675        3.2337271710       19.5363090877
  H         6.2406061553        2.4289208121       21.0001881850
  C         5.5115551368        1.6202651503       19.0471001259
  H        11.3306385807        2.8949241220       21.8322084234
  H        11.8560904008        2.5718797384       20.2668713206
  C        12.6811933808        1.2547675383       21.6592667124
  C        10.1101297880        7.4414061921       17.1133715077
  C        10.1813671068        5.2745143847       15.9622165343
  H         3.2101435379        4.4408414312       29.0006334817
  H         3.2809568303        6.0961289851       28.9681906793
  C         1.6851388425        5.4332982534       30.2888989449
  H         4.8713653763       -1.3433366740       32.8415816171
  C         4.7667991903        0.1095959724       34.1846464882
  H         4.9437957195        1.0259212723       19.7288394380
  H         5.9518753798        0.9344019473       18.2373962221
  C         4.4408371288        2.5212335442       18.4430003867
  H        12.3955470831        0.7992797949       22.6965489946
  H        12.8852043719        0.4044185593       21.0387890925
  C        14.0100519802        1.9012311164       21.8137700424
  N         9.8607441482        8.3211869920       18.1355672331
  C        10.4349362001        8.0572990546       15.8909664963
  C        10.4707063358        5.8583706849       14.7191755286
  H        10.0628253086        4.1941221313       16.0033329111
  H         1.6336719790        6.4291458631       30.5622351168
  H         0.6599695631        5.1772718121       30.0685014153
  H         2.0647820343        4.7967200918       31.0709081639
  S         4.5488337138        1.7234170394       34.6808626731
  C         4.5801111836       -0.9939644772       35.1904270447
  H         4.1575793164        3.2952587075       19.1277530792
  H         4.7909816694        3.0588664074       17.5476112183
  C         3.0954421787        1.7237421336       18.2302860651
  H        14.1324258193        2.7735019082       21.1484736580
  H        14.8523738164        1.2635079483       21.5052632782
  C        14.2492652979        2.3634609442       23.2221048488
  S        10.0724164563        9.8480704933       17.5880288010
  N        10.4849573764        9.4820875734       16.0222684544
  C        10.6911370780        7.3510900243       14.6884187677
  H        10.6992198995        5.2650252834       13.8565661866
  C         4.1563694695        0.9458066337       36.3023719993
  N         4.3621692270       -0.3927055993       36.3759558354
  O         4.6553297335       -2.1590576845       34.9979008569
  H         2.3986799780        2.4442297689       17.8598342233
  H         2.7071871578        1.3342247061       19.1528326926
  C         3.1299387662        0.5587944658       17.2199295506
  H        13.4411239495        2.7669853673       23.7744869161
  H        14.5614147087        1.4305357693       23.6435127888
  C        15.2580481421        3.5139801594       23.2076471474
  C        11.0410445583        8.2015458108       13.6056110132
  S         3.9507429093        1.8079532381       37.8492260849
  C         4.4869852140       -1.1370013443       37.6427504639
  H         3.1221560056        0.9086218012       16.2080402110
  H         4.0949973557        0.0608905193       17.5232058373
  C         2.0270182116       -0.4421409973       17.5035310454
  H        15.5160810632        3.8489416243       24.2279158644
  H        14.9070177707        4.4064050835       22.6582078935
  C        16.6216137215        3.1421402677       22.6498425154
  H        10.7051393168        9.2355979983       13.6973076525
  C        11.5856813840        7.9187719242       12.3329881175
  H         3.6935969900       -0.8183109601       38.4046423685
  H         4.2249710094       -2.1685998088       37.4868917210
  C         5.9036764406       -1.0630789195       38.1677121437
  H         2.1763650029       -1.3121671870       16.7620551985
  H         1.0263769718       -0.1514484486       17.1155202837
  C         1.9740938777       -1.0122475536       18.8926354725
  H        16.5639112470        2.8198127993       21.6157386248
  H        17.2156268554        4.0392087651       22.7262579797
  C        17.3663133217        2.1000231758       23.4917263150
  S        12.2448299283        6.3979225405       11.7520797082
  C        11.5664835433        9.0297865181       11.3017974589
  H         6.1301442070       -1.8919104785       38.9004391798
  H         6.6122966808       -1.1741333472       37.3371615606
  H         6.2273755530       -0.1713195461       38.6734126388
  H         2.8998821193       -1.2758304349       19.4669966902
  H         1.4655562476       -2.0002010758       18.8738609894
  H         1.2412352731       -0.4634359862       19.5747538483
  H        18.3414293563        2.3675237160       23.8495924228
  H        17.4673373960        1.1305661717       23.0022787070
  H        16.8000120349        1.8013916262       24.3866131838
  C        12.4503638518        7.1811492595       10.2558959178
  N        12.1303802453        8.4698212570       10.2018141156
  O        11.1285871716       10.1760791721       11.3669044614
  S        12.9673650909        6.3249294133        8.7644785440
  C        12.2090066967        9.2791077102        8.9454676245
  H        12.2072862209       10.3515010259        9.2644275245
  H        13.1738180404        9.1098710221        8.4277639580
  C        10.9813178669        9.1095182762        8.0778819547
  H        10.1629609406        8.6891439479        8.7027048997
  H        10.5913647990       10.0984411003        7.7254658077
  H        11.1340490764        8.5870236257        7.1227876302
  H         2.0548624090        1.6250102326       12.2712677259
  C         3.0268900189        2.0497066483       12.1985676145
  H         3.6455349384        1.1978907006       12.0338498133
  C         3.2035213075        3.2011057675       11.1790530985
  C         3.2140827307        2.5496001392       13.6227199833
  C         4.4589573276        3.0532924606       10.3456856300
  H         3.2498317187        4.1500829013       11.6848423622
  H         2.2798852324        3.2597496741       10.5800305975
  H         2.4063698646        3.1766771855       14.0133381339
  H         4.0969734120        3.1890179655       13.7047693752
  H         3.3072658944        1.6350646054       14.1801169233
  C         4.5358917517        1.7515619119        9.4732391240
  H         4.3835647068        3.9618809066        9.6860370291
  H         5.2768681406        3.1621433233       11.0510625803
  C         5.3079039691        2.0314788976        8.1272651427
  H         3.4944413567        1.3662901055        9.2563750817
  H         5.0096331510        0.9005793306       10.0768076299
  C         6.5952751497        2.8021229682        8.0777675835
  H         4.5590919772        2.5569654279        7.4838391628
  H         5.5700689051        1.0551876367        7.7070561622
  C         7.7884025504        2.1383308041        8.8719547232
  H         6.9228350362        2.8303716408        7.0297870795
  H         6.4611465316        3.8654280718        8.3007932172
  C         9.1135296888        2.9451592218        9.1867709209
  H         8.1630364382        1.2874594112        8.3481691350
  H         7.4689438084        1.7780441075        9.8321338677
  C         8.8586755048        4.2613288724        9.8718846193
  C         9.5753286872        3.6978112961        7.9469632010
  C        10.1327969195        2.1671704757       10.0452988935
  C         9.1184040188        5.4185164504        9.1060530338
  C         8.4150818083        4.6929286264       11.1442069825
  C         9.5824630383        5.0469173894        7.8402082557
  C         9.9349584521        3.0868101468        6.7464921805
  H         9.6877270992        1.8897082552       11.0188743085
  H        10.4404482485        1.2327241005        9.5930577136
  C        11.4266365705        2.8935060805       10.3421674848
  S         8.6174614989        6.9223724889        9.8195233166
  C         8.1755832253        6.0692158188       11.2035791279
  H         8.3209055675        3.9337870085       11.9235262059
  C         9.9497206282        5.6937361204        6.6718316339
  H        10.0141109089        2.0062865143        6.8102716156
  C        10.3650661016        3.6681939735        5.6185095865
  H        11.2339320536        3.8882548674       10.7085225109
  H        11.9670554021        2.9878647922        9.3459740411
  C        12.4305267700        2.0584203962       11.1974395386
  C         7.6916822107        6.7531318572       12.4953339224
  C        10.2960992685        5.0091411975        5.4866397889
  H         9.9675820858        6.7705398064        6.6878253826
  C        10.8523486168        3.2380315868        4.3589192427
  H        13.4092982689        2.4727693375       11.0611268027
  H        12.4927174140        1.0359962306       10.8517195980
  C        12.0303750592        1.9779923042       12.6750234857
  C         7.6423583390        8.1272748825       12.7544305752
  C         7.3718183318        5.8384720559       13.6311746855
  C        10.8596666374        5.6385966263        4.1966674676
  C        11.1877725641        4.3094332627        3.5492682820
  S        11.2162859169        1.6787219219        3.7045900350
  H        11.4792858262        2.8192130984       12.9762568029
  H        11.3468170677        1.1920551720       12.7725219551
  C        13.2232918496        1.8505345934       13.5178246389
  N         7.8814611358        9.1259120224       11.8444390766
  C         7.5977027104        8.6280593420       14.0432457774
  C         6.9603538798        6.3978084219       14.8385114645
  H         7.2680663715        4.8072365284       13.4168128653
  C        12.2131814962        6.3401588176        4.3069805682
  C         9.7533594567        6.4549428198        3.4407993503
  C        11.6190133716        3.8622455761        2.2798463981
  C        11.6794259291        2.5196715191        2.1847022856
  H        13.7241760823        2.7949020726       13.6318958623
  H        14.0657980663        1.2928937113       13.1174547575
  C        13.0155902581        1.1170020399       14.8608142289
  S         8.0437372750       10.5521988788       12.6676954583
  N         7.8601934512       10.0134991871       14.1845411404
  C         7.2412266119        7.8172025623       15.1250861312
  H         6.6331098838        5.7422074089       15.6172450378
  H        12.0737973434        7.3160316260        4.7241585924
  H        12.7018424914        6.4724206027        3.2987699208
  C        13.2519103116        5.5608008051        5.0632278711
  H         9.1247402751        6.8646912776        4.2366630844
  H        10.1998812139        7.1990919669        2.8053873062
  C         8.8435647763        5.7209099387        2.4888061705
  H        11.8201688153        4.6708006754        1.5809961868
  C        12.0187090178        1.7052050611        0.9696095951
  H        12.3656522561        0.2241950950       14.6144032548
  H        13.8734212666        0.7237722281       15.3591906568
  C        12.2024490925        2.0310932963       15.8909611909
  C         7.0827164322        8.4749738243       16.3738319787
  H        12.9042951456        5.2649044682        6.0629698901
  H        13.5251512950        4.6186439160        4.6035090268
  C        14.5562101440        6.2569608994        5.2944675227
  H         8.5865340563        4.7235600483        2.9130090930
  H         9.3611910213        5.3222154853        1.5938240687
  C         7.6127454188        6.5944477641        2.0317047505
  C        11.9991173226        0.2893903646        0.8260251816
  C        12.3107180152        2.4197360786       -0.2888860153
  H        11.3654703076        1.4554764130       16.2629155115
  H        11.8059448366        2.9934955339       15.4473144538
  C        12.8875242120        2.3482511175       17.1795738068
  H         7.3535829698        9.4664920214       16.3996039648
  C         6.7724911374        8.0297462307       17.6457405213
  H        14.3973323287        7.0110722119        6.0408701248
  H        14.9765697244        6.6489489960        4.3727465342
  C        15.5538576914        5.3148842621        5.8751572652
  H         7.1917887065        7.1105417985        2.8510553527
  H         7.9976884033        7.4174875978        1.4330531555
  C         6.5253489172        5.8291336874        1.2522864681
  N        11.6719180305       -0.5959144884        1.8334474731
  C        12.2753212713       -0.3400120467       -0.3646373112
  C        12.6195770286        1.7383674873       -1.4968071303
  H        12.3815718757        3.5043553019       -0.3833953238
  H        14.0096544665        2.5395534082       16.9973641698
  H        12.7415158260        1.4688184086       17.8185144595
  H        12.3816375254        3.2268936589       17.6510935488
  S         6.3974991702        6.4433766346       18.0861697547
  C         6.7575321468        9.0161204861       18.7534311372
  H        15.0826862568        4.5620265950        6.4956280862
  H        16.0246927373        4.8039148069        5.0150334511
  C        16.7037246353        6.1493875473        6.5509273201
  H         6.3078731968        4.8584337408        1.6505470314
  H         6.9913971481        5.7134614448        0.2415907482
  C         5.2314108592        6.7773782106        1.1278420975
  S        11.5055480314       -2.0428270607        1.2166567338
  N        12.0759002542       -1.7161246219       -0.2450653571
  C        12.6738061838        0.2775822301       -1.5879823516
  H        12.7572245448        2.3080228719       -2.3338070993
  C         6.3084240562        7.0477075531       19.6785557157
  N         6.3286922418        8.3755989524       19.8106882668
  O         7.0452573354       10.2002252779       18.6635330988
  H        17.1979424387        6.6844982594        5.7071510151
  H        16.3983228022        6.8638341022        7.2669174939
  C        17.8291180510        5.2250074523        7.0680485216
  H         4.3724437565        6.1292902447        0.8805970343
  H         5.0744009484        7.0999835554        2.1605233741
  C         5.1950544970        7.9875840071        0.2162421321
  C        12.9258180339       -0.4327484033       -2.7561840471
  S         5.7703464816        6.0491965773       21.0974106774
  C         6.3157315507        8.9816535420       21.0529473861
  H        17.5118926213        5.0271526919        8.0777873367
  H        17.8727256076        4.3977868319        6.3723916670
  C        19.1595051232        5.9071657362        7.1084237467
  H         5.0232660938        7.8026894385       -0.8475351852
  H         6.1925984372        8.4228329064        0.3596496683
  C         4.0162688220        9.0384217115        0.4592142853
  H        12.9033750185       -1.4203496892       -2.6140454261
  C        13.4049364066       -0.0756790689       -3.9341650030
  H         5.4849264751        8.5983934878       21.7026484456
  H         6.0625140617       10.0105240553       20.9788042766
  C         7.7084129126        8.9043808927       21.8078884083
  H        19.7454232362        5.4699488626        7.8982936762
  H        18.9142006456        6.9446646851        7.4400766436
  C        19.9507463480        5.9088809224        5.8156213796
  H         3.5449260005        9.1179222936       -0.5481731293
  H         3.2316604589        8.7025974323        1.2299535027
  C         4.4377414098       10.4406863854        0.8317889181
  S        13.9771674435        1.4584279386       -4.4999002837
  C        13.3726051074       -1.1086446598       -5.0318073496
  H         7.4875077883        8.2663748054       22.7033543349
  H         8.0221455409        9.8572025276       22.1596966069
  H         8.5125252390        8.3941909866       21.2580302941
  H        19.4485149935        5.4092838951        4.9825832758
  H        20.2192622089        6.9630135077        5.5140853783
  H        20.9517473258        5.3929950239        5.9353017845
  H         5.1042161889       10.9392082665        0.0913736603
  H         3.6545793554       11.0953343026        1.1463614620
  H         5.1118593308       10.3749216067        1.6725989967
  C        14.1891372285        0.6991268358       -6.0664847816
  N        13.9674853252       -0.6188575859       -6.1583416657
  O        13.0853177960       -2.3241653565       -4.9535169480
  S        14.7461335223        1.5869811870       -7.5372705593
  C        14.1908300881       -1.4226654089       -7.4298050985
  H        14.0911804424       -2.4308001398       -7.0160265188
  H        15.2782283799       -1.2333280196       -7.7719687426
  C        13.1662651024       -1.2260929811       -8.4291945043
  H        12.2424968447       -0.6396538275       -8.0218499646
  H        12.7667522890       -2.2013899573       -8.6305587143
  H        13.4392270901       -0.7428416381       -9.3480436151
