352
 i =    81500, time =    40750.000, E =        99.5221126806
  H        11.8322200137        6.9356778254       32.5435746116
  C        11.6211184693        5.8473677602       32.3730838828
  H        12.4919239070        5.5009179823       31.8340039038
  C        10.3914083901        5.5621476778       31.5531909782
  C        11.5196628600        5.3199693839       33.8468174850
  C        10.4441489740        6.1964196572       30.1710182419
  H        10.4293766070        4.4924905871       31.4483546088
  H         9.4209142401        5.6479059532       32.1090018784
  H        10.5735386983        5.4228930321       34.3191526326
  H        11.8692514407        4.2512931655       33.8585611399
  H        12.2219731886        5.7931700665       34.5000365393
  C        10.2616768893        5.2177825459       29.0198101450
  H        11.3396502052        6.8973546076       29.9321422049
  H         9.4863451632        6.7236241330       30.2079901888
  C        10.6496243103        5.8120398098       27.6774738699
  H        10.9352518135        4.4236972027       29.2083619063
  H         9.2313484795        4.8205565282       29.0600252506
  C         9.8154177801        5.2415415623       26.5934395356
  H        11.6903024157        5.5495747600       27.5045247621
  H        10.5504063453        6.9066637542       27.6642999101
  C         8.5064749573        6.0388856921       26.4765061843
  H        10.4623933100        5.3610189838       25.6944063548
  H         9.5505943586        4.1374605683       26.7372351650
  C         7.3504479624        5.1595679542       25.8440117241
  H         8.3114793611        6.3886666205       27.5014085501
  H         8.6816973505        6.8545873672       25.7544356851
  C         7.0537535938        3.8058750389       26.5161675926
  C         7.6978390627        4.4936185124       24.5466434092
  C         6.0080704253        6.0037490930       25.5342187819
  C         7.2467297726        2.7315146305       25.6316104787
  C         6.5078234179        3.3696609805       27.7484532202
  C         7.6274767706        3.1651010498       24.4223025649
  C         8.0888652530        5.1412479625       23.3747474656
  H         6.1114099250        6.5616055743       24.6088071828
  H         5.8263709119        6.6331635068       26.3607816431
  C         4.7187509344        5.2783566252       25.3348036157
  S         6.8229177668        1.1621446933       26.2680978349
  C         6.3809673020        1.9955770068       27.7980153160
  H         6.2695896991        4.0543947596       28.4459928860
  C         7.9587641597        2.5392505878       23.2707265692
  H         8.0704741023        6.2704558182       23.4658206780
  C         8.4122328889        4.5843822783       22.1969898347
  H         4.7412055936        4.5850251479       24.4808959703
  H         4.5212358432        4.6794364717       26.2180591221
  C         3.3800155962        6.0772629115       25.3431694845
  C         5.8645100478        1.3587616313       29.0438944780
  C         8.4590647673        3.2191972624       22.0725386202
  H         7.8429804227        1.4644419409       23.1933740387
  C         8.9487315488        5.0548677569       20.9579416570
  H         2.6244937548        5.7973203418       24.6319984474
  H         3.6107489051        7.1284746997       25.0581668470
  C         2.6834902248        6.2228012935       26.6430607292
  C         5.9268117111        0.0194038504       29.3738109729
  C         5.4611512931        2.2518312993       30.1829791319
  C         8.9528896631        2.6231338573       20.7861580253
  C         9.2012605632        3.9929544191       20.1030444586
  S         9.2134503503        6.6059242814       20.1870517622
  H         1.7444925812        6.7899196911       26.5859373120
  H         3.2434582732        6.7608273821       27.3559751609
  C         2.2348609319        4.8531011458       27.1921843545
  N         6.2131757385       -0.9522996153       28.5070008946
  C         5.6616506086       -0.4997595438       30.6451364960
  C         5.2240181911        1.7406990719       31.4743315262
  H         5.2813080220        3.2628392998       29.9552204002
  C         7.8406068263        1.7658205282       20.1521409547
  C        10.1994383162        1.7171641802       20.8997545030
  C         9.6240794947        4.4395407475       18.8610649080
  C         9.5804364603        5.8039322575       18.6736660071
  H         1.7074819034        4.2669616563       26.4168002378
  H         3.0324163897        4.3564021996       27.5995910409
  C         1.3131348685        5.0349235483       28.4050052982
  S         6.2219517063       -2.4124174515       29.2410347583
  N         5.7581884308       -1.8782174013       30.7094962256
  C         5.3698691969        0.2646366206       31.7875670178
  H         5.0353921711        2.3266801642       32.3937835874
  H         7.5260377153        1.0746778724       20.8882376595
  H         8.2197470705        1.1426525060       19.3100066067
  C         6.5292251476        2.4312962504       19.6886958948
  H        10.5513624435        1.4998461954       19.8888146853
  H         9.9479108090        0.7617556376       21.2807416502
  C        11.3940011074        2.3906535625       21.5817930537
  H         9.9700265442        3.6841243212       18.1870421479
  C         9.8603452388        6.4748376291       17.3975732298
  H         0.6022202087        4.2277609650       28.5597079193
  H         0.7674959106        5.9442908643       28.2852888319
  C         2.0572211865        4.9431553286       29.7648076000
  C         5.1704591489       -0.4305824195       32.9752399586
  H         6.5490041817        3.5289647812       19.8050976195
  H         5.7561792395        2.0574973847       20.4619602897
  C         5.9438735904        2.0248432683       18.2918801436
  H        11.1239637979        2.9920077762       22.5351463884
  H        11.7402013181        3.1804762965       20.8794415787
  C        12.6326116260        1.5218795294       21.8057146911
  C         9.8716962381        7.8088598472       17.1254465273
  C        10.2513908554        5.6012618125       16.2421761221
  H         2.9024935040        4.2847299858       29.7344921645
  H         2.5684563499        5.9214054639       29.8559939577
  C         1.1810142297        4.9912002315       31.0077737543
  H         5.5236892871       -1.4624609506       33.0451328764
  C         4.8557453929       -0.0457824573       34.2350099687
  H         6.0434753820        0.8894271834       18.3483891540
  H         6.6835738465        2.3282583615       17.5308601192
  C         4.4046591426        2.2473743708       18.0521699484
  H        12.6704655302        0.8056875665       22.5762033890
  H        12.9036951995        1.0520808387       20.8252059372
  C        13.8786809490        2.3546490946       22.1976614165
  N         9.7393059973        8.8258894017       18.1083898295
  C        10.2509659564        8.3420814518       15.9070702089
  C        10.5499430679        6.1162308305       15.0085427063
  H        10.1531785591        4.5185145607       16.3103496576
  H         0.4559646166        4.1922478078       30.9276708894
  H         1.7663644135        4.7999290246       31.9632034042
  H         0.6297519885        5.9839221501       31.0147231619
  S         4.5703892530        1.5740208766       34.7608888265
  C         4.7305092010       -1.0746038054       35.3215099799
  H         4.1723893704        3.2763660930       18.1627414601
  H         4.1376819504        1.9402491693       17.0900525765
  C         3.5623215224        1.3609366015       18.8822856409
  H        13.5642311320        3.2296518478       22.6598687102
  H        14.3490268824        2.7129325156       21.2331642401
  C        15.0068600777        1.6350760177       22.8785269273
  S         9.7981944787       10.3387481479       17.4328818171
  N        10.3420185838        9.7848143302       16.0008797359
  C        10.6715543985        7.5981164298       14.8012857950
  H        10.8495833587        5.5007473670       14.1984101094
  C         4.0854667066        0.9228585480       36.3606157530
  N         4.2832664367       -0.4869190217       36.4205512779
  O         4.8861397499       -2.2663728099       35.1540212580
  H         3.0328637780        1.8586638979       19.6663529982
  H         4.0295706754        0.5288744577       19.2597274626
  C         2.4369567755        0.6628111265       18.0272348620
  H        14.6260975534        1.0599793540       23.7201501366
  H        15.2745995148        0.7953793407       22.1452424800
  C        16.1145236456        2.6442424317       23.1739308292
  C        10.8496630716        8.3490118346       13.5587009749
  S         3.4709904526        1.6673924454       37.8334093638
  C         4.1296079657       -1.2456304935       37.6297674554
  H         1.6713837038        1.4363206409       18.0750559501
  H         2.5881384404        0.5243863482       17.0284477177
  C         1.8567960594       -0.4905059284       18.6434798469
  H        16.5986000822        2.4405301926       24.1305230553
  H        15.6991692902        3.6240099572       23.3733174612
  C        17.1635479020        2.6731849888       22.0948392151
  H        10.5627756332        9.4063710874       13.5187300956
  C        11.3134836229        8.0193880213       12.3643327926
  H         3.3068295513       -0.9283773975       38.3135202873
  H         3.8812135081       -2.3101815220       37.4702841242
  C         5.4941582461       -1.3029503333       38.3494571331
  H         0.8018718439       -0.4394985211       18.5392717446
  H         1.9571818918       -0.3976012200       19.7532430419
  C         2.3333981606       -1.8177291524       18.0785170289
  H        16.6998307092        2.6303323992       21.1206099524
  H        17.7768941064        3.5816868174       22.1192399522
  C        17.9418873219        1.3539640729       22.2760925469
  S        11.9578714739        6.4453800138       11.7848186504
  C        11.4693940067        9.1026580543       11.3840782298
  H         5.3469216054       -1.4708151436       39.4172168520
  H         6.1930241207       -2.1151865852       38.0386794473
  H         5.9796485076       -0.3888073983       38.1472197514
  H         2.0893431315       -2.0422536246       17.0645189155
  H         1.8946048793       -2.5988018797       18.6781798876
  H         3.3992259368       -1.8286687211       18.0793513468
  H        19.0013383039        1.6369309388       22.4910228545
  H        17.8770007621        0.6478911606       21.4084688417
  H        17.6228578417        0.8053998502       23.1671121997
  C        12.3172562564        7.2909479083       10.3358631153
  N        12.1575493914        8.6173446727       10.3147920736
  O        10.9442318793       10.2161672491       11.4753804387
  S        12.9271764707        6.6111706182        8.8986434257
  C        12.3600844268        9.5345856134        9.1446216703
  H        12.5492355724       10.4939854822        9.5580363810
  H        13.1319792866        9.2325057772        8.5185865816
  C        11.1087855688        9.5972013613        8.3022113522
  H        10.5252503968       10.4784810432        8.6403023107
  H        11.3404930335        9.8893077382        7.3354096380
  H        10.4855766601        8.6778417348        8.3589340498
  H         1.6837553394        1.1929820962       12.3650038002
  C         2.6142366178        1.5758656418       12.0381360300
  H         3.2443882507        0.6756956550       11.9643497705
  C         2.5098575155        2.3349389785       10.6589025924
  C         3.1541354269        2.5159870987       13.1476428441
  C         3.9123308370        2.3869035415        9.9774170925
  H         2.0704279686        3.3280981972       10.6891564045
  H         1.9427990259        1.6047276573        9.9705711518
  H         3.4254329334        1.9781221035       14.0634656334
  H         2.3232901467        3.1993280572       13.5274184042
  H         4.0293351934        3.0795325934       12.7234856040
  C         4.3960051139        1.1408801930        9.3917689141
  H         3.9650103840        3.1236697886        9.2057344895
  H         4.5964841789        2.7589226165       10.7356550237
  C         5.3809727248        1.4352916949        8.2705911231
  H         3.5990432150        0.6584136121        8.9426737748
  H         4.8686061689        0.4987926693       10.1802551197
  C         6.5683849293        2.3787328353        8.6645221616
  H         4.8315631925        1.9819525952        7.4993832780
  H         5.7645590243        0.5005321726        7.9157560539
  C         7.8327254461        1.7281437975        9.1349910668
  H         6.7572483413        3.0327013082        7.8576870794
  H         6.2135067705        3.0205387931        9.4681268702
  C         9.0213210908        2.7266493384        9.3439138916
  H         8.0914280063        1.0258248167        8.3847816974
  H         7.7215235096        1.2426747002       10.0607854144
  C         8.6032785091        3.9896385053       10.0546717662
  C         9.3973943691        3.5243101277        8.1381663396
  C        10.2295758116        2.1020094680       10.0823356776
  C         8.8480811225        5.1246919571        9.3213751047
  C         8.1296174454        4.3093039110       11.3241740037
  C         9.2869829321        4.8492510066        8.0561042914
  C         9.9008519819        2.9829899970        6.9535358045
  H         9.8655981176        1.4261620994       10.7849918825
  H        10.8649341588        1.4160953294        9.4660061357
  C        11.2135496992        3.0975429685       10.7960796831
  S         8.4935947424        6.6254922437       10.1143127554
  C         7.9984443834        5.6850755811       11.4959135329
  H         7.9657353356        3.4845724985       12.0012374810
  C         9.6704055524        5.5256659857        6.9353960719
  H         9.8774802404        1.8456443547        6.9244479947
  C        10.3517890455        3.6848524769        5.8476469618
  H        10.6584848201        3.7274499102       11.6238404866
  H        11.4613505258        3.8005525503       10.0311544919
  C        12.4926099687        2.4587047187       11.3517148022
  C         7.5802617268        6.4239106661       12.7804522458
  C        10.3447328852        5.0339181756        5.8242807772
  H         9.4940430444        6.5470512587        7.0399718892
  C        10.7864628959        3.3749372980        4.6013393185
  H        13.1487305621        3.3010167410       11.3626017654
  H        12.7621285713        1.6587257304       10.6893472465
  C        12.3328446096        1.9010244791       12.7892814013
  C         7.5944492032        7.8355201078       12.9583213363
  C         7.3390987496        5.5336902313       13.9720606306
  C        10.8369372671        5.8327169176        4.6164642375
  C        11.0129492004        4.5324963225        3.8458855557
  S        11.0733799184        1.8635013608        3.8435771212
  H        11.5291731551        1.2397203756       12.7410109411
  H        13.2075275615        1.2621481755       13.0503560991
  C        12.0657723419        2.8696984861       13.9213300538
  N         7.9864319211        8.8173772996       12.0182577242
  C         7.3569287935        8.3805497664       14.2303240026
  C         6.9854184673        6.0901744779       15.1679264195
  H         7.0762103205        4.4961581419       13.8092308447
  C        12.1167916548        6.5859045524        4.8996860583
  C         9.7444588762        6.8056739880        4.0375731467
  C        11.4231533790        4.1716836611        2.5429020790
  C        11.4029127672        2.8063321593        2.3600779592
  H        11.2088045469        3.5376507313       13.6090473366
  H        12.7776179249        3.6342563461       14.1240272711
  C        11.9166006869        2.2043221398       15.2232548320
  S         7.7459959683       10.2377212463       12.7036469389
  N         7.3966231516        9.7909581852       14.2339980088
  C         7.0854894427        7.5221248128       15.3513978908
  H         6.8256652822        5.5059532406       16.0447959807
  H        11.8536106259        7.3404016505        5.6576264621
  H        12.2257010644        7.1073978363        3.9850970028
  C        13.3003700854        5.7383691676        5.3389797729
  H         9.2745694745        7.4063966379        4.7819986377
  H        10.2074307587        7.3495691945        3.1909350116
  C         8.5279303586        6.1287432340        3.4537048536
  H        11.6261965346        4.9745827083        1.8637809414
  C        11.7729279695        2.1189318993        1.1162505899
  H        11.1572334148        2.6958638708       15.8395070417
  H        11.4671849732        1.2680201137       14.8883350909
  C        13.2337339491        2.0797569315       16.0278085159
  C         6.8892853417        8.2514784171       16.5821605047
  H        13.0936583403        5.1430782734        6.1827331095
  H        13.4945002365        5.0633026479        4.6015708120
  C        14.4507881563        6.6468707642        5.6471808296
  H         7.6978566001        6.5241725450        4.0334779920
  H         8.5086708373        5.0567949949        3.5730876605
  C         8.3450517221        6.5889519337        2.0246538324
  C        11.9206335328        0.6858511986        1.0261309033
  C        11.8593930563        2.8188980465       -0.1728766092
  H        14.0436759956        2.4707964674       15.3936222160
  H        13.4684138718        1.0300501773       16.1222372747
  C        13.4016212929        2.7157652680       17.4834917163
  H         7.2224359288        9.3007875531       16.5382912401
  C         6.5536698010        7.8318679873       17.8533759261
  H        14.1646744695        7.5252063740        6.2599507850
  H        14.7531634951        7.0659001070        4.7258024797
  C        15.5226905890        5.7998803983        6.2709554823
  H         8.2709489153        7.6787934160        1.9732996320
  H         9.2086904152        6.2704100600        1.4445565587
  C         7.2235067576        5.9360103506        1.2433647875
  N        11.7870623477       -0.2724060366        2.0248249031
  C        12.2388505240        0.1087410822       -0.1808655707
  C        12.2765779420        2.2074175210       -1.3943325490
  H        11.4099215351        3.7438619301       -0.2437440828
  H        13.0909376787        3.7579593727       17.4083231763
  H        14.3787293324        2.5728759380       17.9172845277
  H        12.6599248131        2.2812299188       18.2527233428
  S         6.0837814802        6.2474217916       18.3304696767
  C         6.5407725453        8.9133422480       18.9361325306
  H        15.7357472630        6.0274841114        7.3269748941
  H        15.1486659561        4.6919698979        6.2912663513
  C        16.8760679654        5.7440126974        5.5890654028
  H         7.6261914407        4.9498960594        1.3040661845
  H         7.1789854461        6.3020189287        0.1905238319
  C         5.8770467480        6.0697970689        1.9670047901
  S        11.9013958457       -1.7484348864        1.3526319501
  N        12.3777592981       -1.2467266930       -0.1261622183
  C        12.5018091362        0.7651639816       -1.4349618467
  H        12.2671884474        2.7713024820       -2.2840147720
  C         5.8855895593        6.9564537380       19.9674090082
  N         6.1735951548        8.3204983596       20.0545541001
  O         6.8593058776       10.0957253152       18.6999725258
  H        16.8890425118        5.3370483486        4.5540753330
  H        17.2991608384        6.7596419547        5.4436600505
  C        17.8872793471        4.8508727276        6.4513176313
  H         5.2444831788        5.6415392351        1.2301971052
  H         5.8220881637        5.4596619594        2.8919054779
  C         5.5340374576        7.5780118479        2.2122419379
  C        12.7827161203       -0.0902186877       -2.6338787181
  S         5.4524512907        6.0971992406       21.5200418841
  C         6.2204955964        9.0428941396       21.3347509549
  H        17.2641587185        4.1265845816        6.8138358958
  H        18.6890804073        4.3782506496        5.9688143985
  C        18.4061415827        5.4940921794        7.6558801847
  H         6.1935177655        8.1515713471        1.6499460912
  H         5.6970140230        7.8402482312        3.2269709262
  C         4.0842489678        7.9785559142        1.8945273553
  H        12.4889490865       -1.0915908518       -2.4545910362
  C        13.2867340293        0.1408750610       -3.8950822368
  H         5.4292048269        8.6165240823       22.0115120919
  H         5.8005694790       10.0624436237       21.1438814469
  C         7.4810444805        8.9502996310       22.2151829258
  H        18.2888711735        4.7147579510        8.3776995595
  H        17.8474120191        6.3824529818        7.9662736498
  C        19.8420995582        5.8602810962        7.6411499123
  H         3.8893239337        7.8431509294        0.8447635797
  H         3.3383082717        7.4204672839        2.5122935220
  C         3.9334341151        9.4988647361        2.0650209243
  S        13.8772347285        1.6283200429       -4.5067410687
  C        13.3438253599       -0.9371627631       -4.8762513609
  H         8.0407044824        8.0309771465       21.9625503910
  H         7.0255337428        8.8532674339       23.2545490564
  H         8.1103713405        9.8668395409       22.1515260016
  H        20.0145882864        6.3325627617        8.6411907938
  H        20.4618393732        4.9764077214        7.3889311566
  H        20.0668777616        6.6330085449        6.9608952631
  H         4.4187859248       10.0234050585        1.2813956938
  H         2.8321496350        9.6827529130        2.0931641548
  H         4.2797845900        9.7388544250        3.0425291891
  C        14.4802377581        0.7390049687       -5.8710966325
  N        14.0903423375       -0.5655115069       -5.9526397426
  O        13.0505152478       -2.1122723695       -4.6753446221
  S        15.3726128256        1.3548201474       -7.3068744122
  C        14.1308701695       -1.4280278186       -7.1266741897
  H        14.1168732976       -2.4682208327       -6.7141715304
  H        15.1289341016       -1.3120420056       -7.6682992312
  C        12.9050808990       -1.0256095930       -7.9835261859
  H        13.1095030803       -1.0814782703       -9.0611424317
  H        12.5166115525       -0.0074168660       -7.8391383118
  H        12.1452810070       -1.7585159445       -7.7471766826
