352
 i =    87000, time =    43500.000, E =        98.7770844907
  H        12.3365715753        6.4395748395       33.0730737999
  C        11.6910172827        5.6463062375       32.6885105140
  H        12.4561166479        4.7693750213       32.5304474700
  C        10.9875080839        6.0069534069       31.3400904886
  C        10.7220189150        5.1923703580       33.7776000659
  C        11.6595238731        5.5614107470       30.0726195336
  H         9.9704066309        5.7504417908       31.4419540034
  H        11.0937365114        7.1180686471       31.2138533876
  H        11.1358054718        5.3197437556       34.8185702860
  H         9.8667297370        5.8270748755       33.6591072772
  H        10.4043404443        4.2178712738       33.6138287069
  C        10.6485932039        4.8503862037       29.2370132132
  H        12.5928400885        4.9544214565       30.3421936170
  H        11.8609001274        6.4767270953       29.5134745137
  C        10.9169852087        4.9480097543       27.7535721848
  H        10.6111134720        3.7824931807       29.5680103945
  H         9.6290900082        5.1451960967       29.3947229938
  C         9.6930748506        4.5095580507       26.9706826040
  H        11.8163843312        4.2636511979       27.4385755510
  H        11.1554365854        5.9813775985       27.3549116192
  C         8.7734973987        5.6937024308       26.5492190710
  H        10.0956987866        3.9695531046       26.1610227588
  H         9.1483692784        3.7515334654       27.5557777858
  C         7.4075480537        5.2332545256       25.8373361250
  H         8.5825585168        6.3417087123       27.3728694602
  H         9.4625001195        6.2842352561       25.8712604169
  C         6.9319285268        3.9110431054       26.5189146335
  C         7.6515282501        4.5637318793       24.5047392453
  C         6.3143965220        6.3809344675       25.8432988892
  C         6.9602451298        2.8554038474       25.6574610076
  C         6.4658125593        3.5136723935       27.7682961145
  C         7.3878334675        3.2535619012       24.4120718415
  C         8.0402057827        5.2006556544       23.3304357415
  H         6.5955433179        7.2845723515       25.4461045270
  H         6.1258893409        6.4559801428       26.8917369314
  C         5.0229860951        5.8264228562       25.1165797593
  S         6.5164257373        1.2913908031       26.3141234239
  C         6.2215204210        2.1723792057       27.8389610072
  H         6.3069048645        4.2678296890       28.4822900687
  C         7.7402939052        2.5568627103       23.2856339828
  H         8.3455597546        6.1917250234       23.3016567985
  C         8.3455296116        4.4662309384       22.2005143556
  H         5.1886988993        5.7431391625       24.0520331771
  H         4.7467069023        4.8136414051       25.3771836019
  C         3.7800460475        6.6876211720       25.2835255210
  C         5.8308523254        1.5722350354       29.1445824892
  C         8.2494652701        3.1311319899       22.1020232587
  H         7.4335861306        1.5298396948       23.1927674855
  C         8.7790596403        4.8361871421       20.9725203571
  H         2.9242493641        6.4917712704       24.6268866095
  H         4.1312651175        7.6548069045       24.9763129615
  C         3.1272392523        6.7208720757       26.7675572336
  C         5.8161918468        0.1549887330       29.4053559250
  C         5.5153322785        2.5192488702       30.2836280540
  C         8.6332547205        2.3757912741       20.8691232309
  C         8.9396655704        3.7456862500       20.1577220389
  S         9.1962984521        6.3103962950       20.1471823879
  H         2.5250102360        7.5664970400       26.7503689008
  H         3.9119193833        6.9039694660       27.4872542831
  C         2.2159218982        5.5209582269       26.9984746726
  N         6.1838135636       -0.7568341148       28.4808801719
  C         5.4718760002       -0.2967670617       30.6438385502
  C         5.1592935345        1.9920332115       31.5237231031
  H         5.4080208649        3.5594309234       30.2007862286
  C         7.5624390870        1.4941731392       20.2214032393
  C         9.9839122769        1.5948682530       21.2015191011
  C         9.5286727448        4.1511044941       18.9026364689
  C         9.6217314391        5.5143823854       18.6745272386
  H         1.5643298680        5.3255450718       26.1108725461
  H         2.7930022724        4.5484444892       27.0242301845
  C         1.4807653438        5.6497390965       28.3596727667
  S         6.1158598385       -2.2199976080       29.2607612066
  N         5.5706230057       -1.6782677941       30.6871806836
  C         5.1710497077        0.4538470922       31.7544729092
  H         4.8970514729        2.6340315276       32.3727912917
  H         7.4549677011        0.6148987053       20.7924486952
  H         8.0964033940        1.2770619918       19.2911685728
  C         6.1581754445        2.1577128790       20.0397731225
  H        10.2299044323        0.9613504022       20.3077816313
  H         9.8647012355        0.8297967706       21.9767769703
  C        11.1065997603        2.4528638389       21.6945011893
  H         9.7386497013        3.4056343128       18.1892707504
  C         9.9818404389        6.2140309448       17.4334407415
  H         1.0006345580        4.6884714160       28.5060563172
  H         0.7221223145        6.3798253554       28.2151618802
  C         2.3159997511        5.9580705828       29.5841705759
  C         4.8867601822       -0.2431606812       32.9844416797
  H         6.0438100960        3.1109990875       20.5946715443
  H         5.4002368596        1.5242812502       20.5067837666
  C         5.8591585265        2.3856921168       18.5595647814
  H        10.8574040067        3.0916558767       22.5713890731
  H        11.4224194654        3.2652913948       21.0071387733
  C        12.3994394879        1.7197832879       21.9640638194
  C         9.9922362256        7.5842936941       17.2075620021
  C        10.1000151893        5.4139455653       16.1876373543
  H         3.1993496032        5.2645100875       29.6376197090
  H         2.4446065592        7.0296645857       29.4500214942
  C         1.3997518226        5.8307622554       30.8570513069
  H         4.8890840164       -1.2505432601       32.9748304656
  C         4.6591515754        0.2011319211       34.2507467361
  H         6.5170029301        1.7971671713       17.8173068371
  H         6.0371471693        3.4717218410       18.3755205526
  C         4.4269764677        1.8974442680       18.1710468611
  H        12.3095122496        0.8808014810       22.6333105597
  H        12.7380638882        1.0620132218       21.0842959659
  C        13.4670875622        2.6062722369       22.4753440603
  N         9.9129627373        8.5431382663       18.2055665781
  C        10.1881655075        8.1490534902       15.9534444097
  C        10.3165761154        5.8788487938       14.8614522605
  H        10.2243221373        4.3391503221       16.3301871057
  H         0.7005842488        5.0648908913       30.6571871250
  H         1.9928807811        5.6361492148       31.7539236837
  H         0.8673720952        6.7046565619       31.0605892486
  S         4.4079617632        1.8286683765       34.8219064462
  C         4.5474320225       -0.8355679125       35.3358330541
  H         3.7113510772        2.3456609704       18.8486282536
  H         4.1679864661        2.1965680004       17.1715873088
  C         4.1227354077        0.3999545003       18.2599342374
  H        13.2093032239        3.0784037878       23.4116492499
  H        13.5364008431        3.4107422454       21.7518427659
  C        14.8408552330        1.8992205541       22.5346677898
  S        10.0185860547       10.0442667609       17.5152074496
  N        10.3525880126        9.5447126076       15.9873777275
  C        10.3495771077        7.3766162894       14.7480862255
  H        10.3437818283        5.2780998747       13.9819110079
  C         4.0444588284        1.1128259747       36.3896098651
  N         4.2086903268       -0.2324901299       36.5004949933
  O         4.8276530190       -2.0213579919       35.1367714219
  H         4.6917424057       -0.0402410138       19.1029637514
  H         4.4409236538       -0.1134370655       17.3138208295
  C         2.6795038631        0.0690270615       18.4946309931
  H        14.7580037600        1.2382987259       23.3031436000
  H        15.0841371318        1.2618606823       21.6748915231
  C        15.9589173869        2.9074106166       22.7373471697
  C        10.6284961681        8.1131230745       13.5640317271
  S         3.8166588613        2.0764702131       37.8789655243
  C         4.2690830339       -0.9699921706       37.7429258730
  H         2.4154149529        0.4013445995       19.5817965821
  H         1.9533457468        0.6422935282       17.9172786093
  C         2.3803886861       -1.4411500805       18.3281224525
  H        15.8742921772        3.3520462653       23.7344791058
  H        15.9209809962        3.7369936933       22.1002142831
  C        17.3487460216        2.3117258055       22.6985092570
  H        10.2518065187        9.1878322506       13.5746999827
  C        11.2125955085        7.8463129398       12.4021323857
  H         3.5710048791       -0.5886547530       38.4555902296
  H         4.0302936627       -2.0163009078       37.6057270443
  C         5.6811713551       -0.8349430764       38.3845927800
  H         1.3703127844       -1.6251597874       18.6846394463
  H         3.0407541253       -2.0323341539       19.0153427863
  C         2.2594697154       -1.9526446075       16.9152940792
  H        17.4181596002        1.6278228927       21.8561771402
  H        18.1029759908        3.0534807160       22.4445819988
  C        17.7376965017        1.5656214698       24.0045375512
  S        12.0064882996        6.4060325012       11.9820877926
  C        11.2960578647        8.9048283933       11.4052246126
  H         6.3924061374       -1.1632755414       37.6376703074
  H         5.9258435433        0.1648922215       38.8058410992
  H         5.8466805510       -1.6896731821       39.1053249638
  H         3.0779332565       -2.2700682413       16.3242891819
  H         1.6795834989       -1.2768493300       16.2835681471
  H         1.7215148012       -2.8990802921       16.9591199503
  H        17.6687011680        2.2709463086       24.8173042572
  H        18.7008568611        1.0633037130       23.9232340710
  H        16.9756698313        0.8111643151       24.2404844785
  C        12.2980399762        7.1513648536       10.4420735267
  N        11.8780450404        8.4011109700       10.2851142870
  O        10.8983855907       10.0285861255       11.5635018759
  S        13.2339253747        6.4095245324        9.1931945459
  C        12.0993985307        9.2748928911        9.0608224086
  H        12.7702184940       10.0572392898        9.3800805478
  H        12.5510026015        8.7831658964        8.2125269026
  C        10.6355393896        9.7653487636        8.6139341303
  H        10.0584881353       10.2936513211        9.3759963761
  H        10.6652884329       10.6270810644        7.8554876338
  H         9.9788185811        8.9768076157        8.2292540808
  H         4.6939779395        1.4895946233       12.5832663534
  C         4.3248560093        2.4603880503       12.8043166052
  H         5.1451620016        3.1433005482       12.7657805246
  C         3.3834478040        2.7862751529       11.6770397208
  C         3.7022550837        2.3844939406       14.1876051433
  C         4.1025175201        2.8962819971       10.3482095435
  H         2.8811900924        3.8476058686       11.7452324280
  H         2.4880597064        2.1648411845       11.6706978783
  H         2.9193842749        1.6828212766       14.3136668255
  H         3.3866790142        3.3026749721       14.7015405237
  H         4.5192325837        1.9260775161       14.7635384525
  C         4.5555771811        1.5944317767        9.6490855555
  H         3.4251351746        3.3789956762        9.6482190575
  H         4.9280517434        3.5915542819       10.5219156521
  C         5.3277656488        1.8160205086        8.2827202483
  H         3.6749046072        0.9523801374        9.5754559324
  H         5.2250545584        1.0004825628       10.3167097717
  C         6.5723568123        2.6490972679        8.3439700080
  H         4.6250689615        2.1934673277        7.5625753580
  H         5.5152968479        0.7848624640        8.0288525157
  C         7.8273285343        2.0187050813        8.9003766184
  H         6.6612292073        2.9244814169        7.3261707503
  H         6.2931471648        3.6416089125        8.7516870275
  C         8.9884217263        3.1407344572        9.1253460632
  H         8.1873189443        1.1774081018        8.3079109048
  H         7.6398057824        1.6313711329        9.9151093209
  C         8.5696244245        4.4575055473        9.8864428684
  C         9.3972147829        3.9644448745        7.8693382705
  C        10.1925650317        2.3966822171        9.8899780173
  C         8.7803885472        5.5963925002        9.0686357126
  C         7.9882927980        4.8055075299       11.0938276687
  C         9.3503656849        5.3300488324        7.8526909476
  C         9.8739489756        3.3757270009        6.7077945666
  H         9.8134042878        1.7988380919       10.7291083447
  H        10.7587136441        1.7070133101        9.2111508161
  C        11.2225193433        3.2804673045       10.5316963446
  S         8.2929094498        7.0246985106        9.7604195421
  C         7.8485928601        6.1677243385       11.2107105048
  H         7.7757915145        3.9707572856       11.7921262699
  C         9.7689693052        5.9795430621        6.7114039482
  H         9.9245235723        2.3228409265        6.7742636187
  C        10.3076830618        3.9897345565        5.5928065246
  H        10.7100829777        3.7188140205       11.4054946304
  H        11.5050367723        4.1770530943       10.0552087696
  C        12.5998473603        2.7356951293       10.9242724415
  C         7.3845386328        6.8146276025       12.5194603684
  C        10.3269267764        5.3358322235        5.5559827020
  H         9.9084483298        7.0734946124        6.7489737122
  C        10.6917159980        3.5665128323        4.3562114500
  H        13.3770254328        3.4878642006       10.9546164287
  H        12.9972905405        2.0057019235       10.1871635296
  C        12.6880321698        2.0500028476       12.3012109491
  C         7.4553146675        8.1459876599       12.8575941195
  C         6.8389812314        5.9253492574       13.6098410370
  C        10.8350433129        5.9326162148        4.2177950103
  C        11.0604633906        4.5826026915        3.5343954016
  S        10.9047074428        2.0031003753        3.7118952507
  H        11.7697670480        1.4863734534       12.3811863072
  H        13.5056372393        1.3143215914       12.2873435761
  C        12.8957688768        2.8997194724       13.5292465856
  N         7.8191431317        9.1782279333       11.9879634152
  C         7.1963275613        8.6599762596       14.1079156654
  C         6.5907487319        6.4507007289       14.8551827759
  H         6.7040761508        4.8377509520       13.5641125234
  C        12.1963019410        6.6280563052        4.4003774953
  C         9.7246205728        6.6851241709        3.3211851254
  C        11.3753576480        4.1372063721        2.2671831504
  C        11.4923102780        2.7811895325        2.2646673526
  H        12.4776459076        3.9157467381       13.3086459874
  H        13.9069647056        3.1884669704       13.7313174501
  C        12.2936434771        2.4107393687       14.8716313411
  S         7.5585302387       10.5820976452       12.7387671095
  N         7.2259112483       10.0528772237       14.2238407444
  C         6.8054738337        7.8859620907       15.2264793598
  H         6.2681590121        5.8027771106       15.5655586146
  H        11.9675048801        7.6055141476        4.9700660810
  H        12.6248898179        6.8804391852        3.4236049097
  C        13.2584561531        5.8597072523        5.2035716251
  H         9.5939839252        7.6438059804        3.7941749177
  H        10.1068816989        6.9459510743        2.3438903390
  C         8.3582777114        6.1318681838        3.2656469076
  H        11.5553741742        4.8814422583        1.5556688203
  C        11.9567731936        2.0082500243        1.0375940297
  H        11.6848263556        3.2003075466       15.3184871068
  H        11.5617918650        1.5880972578       14.5878518765
  C        13.3033761735        1.9925965461       15.9950166259
  C         6.6782700616        8.4759669294       16.5168309959
  H        12.9458562978        6.0803479765        6.2412248011
  H        13.2874965028        4.7601964362        5.0443053942
  C        14.6598757235        6.3189659954        5.0290410821
  H         7.8339067558        6.3297898338        4.1900128917
  H         8.3855520456        5.0348483665        3.0610762685
  C         7.5172259109        6.7202364889        2.1279976443
  C        11.9817567181        0.6083529579        0.8609508059
  C        12.2239229193        2.7784292849       -0.2536207825
  H        14.2344153255        2.1225899026       15.6102696411
  H        13.1671260991        0.9740745457       16.1663532350
  C        13.0167080253        2.6120724096       17.3494815130
  H         6.7020079841        9.5130264537       16.4610132858
  C         6.3051384996        8.0280927648       17.7670397027
  H        14.5809194571        7.4336130410        4.9377020381
  H        15.0126789400        5.9284606077        4.0638261883
  C        15.3548489373        5.9040265302        6.2650601954
  H         7.7231645099        7.7827125360        2.0729754484
  H         8.0312780352        6.2275658073        1.2891445987
  C         6.0538938876        6.4069153697        2.0987788150
  N        11.5444870235       -0.3481221145        1.8306544690
  C        12.3407521595       -0.0968355645       -0.3152178183
  C        12.4768816773        2.0950385670       -1.4084350138
  H        12.2647546325        3.8597487797       -0.2725894862
  H        11.9708108216        2.6205480477       17.7223597287
  H        13.2535365686        3.6911426570       17.2697120917
  H        13.5415680471        2.1691552881       18.2194621436
  S         6.1019241236        6.3942860268       18.2837379949
  C         6.2336104939        9.0166784790       18.8654488616
  H        15.0290547964        6.5773396406        6.9994777632
  H        15.0714626767        4.8591706870        6.5595353699
  C        16.8606272305        5.9490620482        6.1474021510
  H         5.9452108613        5.3936067014        2.4863952910
  H         5.5788350527        6.4206837680        1.0885975285
  C         5.2332377386        7.4510518598        2.9781036873
  S        11.8232268117       -1.8742073150        1.2322955965
  N        12.3782788270       -1.5146378104       -0.2433454146
  C        12.5823193973        0.6063883855       -1.5327458468
  H        12.5135789399        2.6264537968       -2.2845912130
  C         5.9165774999        7.0919869551       19.8932163341
  N         6.0466879285        8.4127090781       19.9655241023
  O         6.3704770739       10.2274022020       18.7106938830
  H        17.1166316485        5.7684611946        5.0833940196
  H        17.1125381602        6.9784853005        6.2978480353
  C        17.5525221476        4.9964432143        7.1212794468
  H         4.3470695312        7.0909936158        3.4556239704
  H         5.9274206504        7.6414943345        3.7646149412
  C         4.8560118356        8.8164381153        2.3549785496
  C        12.7335096524       -0.1372496173       -2.6753783311
  S         5.6545561667        6.0624422561       21.2698967579
  C         6.1448887926        9.1948204455       21.1607349174
  H        16.8636856148        5.0029615597        7.9890845510
  H        17.4874418544        3.9946145246        6.7457642640
  C        18.8673087980        5.6393560397        7.5899260179
  H         5.7319536066        9.1381767114        1.7039367263
  H         4.6363265021        9.6570905759        2.9990564136
  C         3.7524441029        8.6111469478        1.3465856037
  H        12.5949236788       -1.2410332857       -2.5486910903
  C        13.1973017344        0.1414363109       -3.9289041909
  H         5.5482958301        8.6325978863       21.9085960940
  H         5.8311039797       10.2227504815       21.0409304088
  C         7.5856477468        9.3065301704       21.7399354153
  H        19.2655456582        5.1448771224        8.4168734307
  H        18.4573830721        6.6593894843        7.9603575251
  C        19.9908118551        5.6770729626        6.4955969512
  H         3.9922602866        7.8024310733        0.6904924075
  H         2.8224339023        8.2429584558        1.8111873213
  C         3.3627272806        9.7913513891        0.5601705446
  S        13.5809960918        1.6589712114       -4.5812867389
  C        13.2541285140       -0.9715370172       -4.8904271437
  H         7.6181718481       10.0982129746       22.4809122285
  H         8.2272713158        9.5764063587       20.8468577813
  H         7.8510004680        8.2766434038       22.0436980231
  H        19.6372983705        6.0443739084        5.5660464337
  H        20.6773116401        6.3988155493        6.8264482319
  H        20.4233315867        4.7018290183        6.3949290334
  H         2.5098678991        9.6717723842       -0.0890098706
  H         3.0623691356       10.6906062775        1.1158114184
  H         4.2272185279       10.1076988385       -0.0338318547
  C        13.9862209740        0.8131676485       -6.0592377816
  N        13.7858156095       -0.5383046836       -6.0775298311
  O        13.0175760404       -2.1742095815       -4.6509707551
  S        14.5211855217        1.4449652856       -7.6154269933
  C        14.0161274563       -1.4450092712       -7.2077755933
  H        14.2661797611       -2.4574368580       -6.8159097658
  H        14.8780746351       -1.2128978818       -7.9135561516
  C        12.6698712850       -1.3498186603       -7.8880667914
  H        11.8671331485       -1.1381370287       -7.2137183359
  H        12.3562465106       -2.3901809670       -8.2546216343
  H        12.5631221165       -0.7842286190       -8.8414066452
