352
 i =    78800, time =    39400.000, E =       100.0239184273
  H        12.2987365164        6.6305698468       32.1840647905
  C        11.6511101843        5.8522782407       32.3852006431
  H        12.2650492992        4.9134510914       32.3803767885
  C        10.6025922619        5.9804792888       31.3500314312
  C        10.9929743376        5.8965105984       33.7828421750
  C        11.1772425640        5.8603504778       30.0155982854
  H         9.8329322099        5.1964825975       31.4421238994
  H        10.0644031136        6.9101243637       31.4689831011
  H        10.2319501185        6.6763534196       33.8544553923
  H        10.3955336989        5.0582176199       34.0341268440
  H        11.6993263550        6.1222093507       34.5826162255
  C        10.0803456393        5.6854060140       28.9389303941
  H        11.6665752286        4.8328739615       30.2103512286
  H        11.9967411955        6.5605880852       29.8797911228
  C        10.7828568527        5.4260657170       27.6468045044
  H         9.4174295811        4.9039089830       29.2190412312
  H         9.4597314127        6.5293780036       29.0252486434
  C         9.8934869626        4.7776240568       26.5480825668
  H        11.5334817586        4.7309428282       27.8520968653
  H        11.3373833292        6.2591415470       27.2306962665
  C         8.7772344374        5.7526621629       26.2398269429
  H        10.5691566609        4.5234555837       25.7679263815
  H         9.5429198591        3.7780156769       26.8075234714
  C         7.5757607911        5.1563712371       25.4377806514
  H         8.4211673746        6.2060706409       27.1910427351
  H         9.1607350922        6.6251988767       25.7221384599
  C         7.1712307365        3.8703069777       26.0847316223
  C         7.8351405593        4.4886563031       24.1604610655
  C         6.3607250906        6.0892597985       25.4070973929
  C         7.2564092618        2.8037504125       25.2105880560
  C         6.6783527587        3.4964874866       27.3215950955
  C         7.7236583551        3.1838066828       23.9779583941
  C         8.3581231525        5.0851877341       23.0372621105
  H         6.6185515940        6.9467031306       24.7905574770
  H         6.1753070301        6.4552999762       26.4610659833
  C         5.1154793169        5.5524048103       24.6857665975
  S         6.9529920509        1.2581171717       26.0300466399
  C         6.4811898563        2.1125816070       27.4308596149
  H         6.4872281628        4.2284146393       28.1082517132
  C         8.0683656941        2.6028860434       22.8127382741
  H         8.3793299086        6.1424751662       23.1727606791
  C         8.6688507641        4.5552137042       21.8721544345
  H         5.2800251319        5.5414483116       23.6801653691
  H         4.8050673303        4.5333718614       24.9395191661
  C         3.9519720525        6.5273004857       24.9005806689
  C         6.0059806328        1.5225747566       28.7203407925
  C         8.6597638277        3.2160959060       21.6857121552
  H         7.8510964256        1.5150809286       22.7605943330
  C         9.1802017310        5.0065303409       20.6359089790
  H         3.2118175316        6.4490309051       24.1217932935
  H         4.2899024036        7.5754264453       24.5761149769
  C         3.3275273684        6.4570827028       26.2722405675
  C         6.1208876599        0.1104494986       28.9793709530
  C         5.6759484266        2.3384124042       29.8815916652
  C         9.1367100214        2.5495759926       20.4598389818
  C         9.4395862412        3.9048577703       19.7835355073
  S         9.6136752949        6.4906674398       19.9340981555
  H         2.6552492834        7.3318106744       26.2958106327
  H         4.0194084696        6.5395697514       27.0661424791
  C         2.3428726720        5.2914219343       26.5228186780
  N         6.5116239222       -0.7614374186       27.9934431875
  C         5.9211401295       -0.4797209454       30.1799865038
  C         5.5566485239        1.7752015558       31.1729944504
  H         5.4748940997        3.3695980551       29.9116075389
  C         8.0687494398        1.7284756735       19.7580483847
  C        10.3471909926        1.7468365765       20.6822813505
  C         9.7661366400        4.3077220688       18.5051074880
  C         9.8487647202        5.6634798254       18.3893647882
  H         1.5864158217        5.3389974353       25.7485966324
  H         2.8856787677        4.4224624649       26.3504279743
  C         1.8864036945        5.3164744009       27.9658102646
  S         6.4658216082       -2.2816558746       28.6433302788
  N         5.9748310839       -1.8487418796       30.1379300289
  C         5.6139031206        0.3017975885       31.3548464343
  H         5.3908445287        2.3911126118       32.0420586907
  H         7.7830451940        0.8664951267       20.3693512489
  H         8.5068118364        1.2458606170       18.8796827164
  C         6.9891038550        2.5900037388       19.2020303080
  H        10.4292536743        1.0352020819       19.7967601028
  H        10.1201118723        0.8793232350       21.3757460768
  C        11.6178726837        2.4661264212       21.0737045794
  H         9.8706748663        3.5695434545       17.7734657660
  C        10.0730561469        6.4163294947       17.1101054257
  H         1.1481541402        4.5338316439       28.0105853052
  H         1.3915229010        6.2475627163       28.2776799230
  C         2.9017777590        4.9189474048       28.9765939661
  C         5.3640873895       -0.3282580857       32.6033080429
  H         7.3675876990        3.3438392774       18.4732530128
  H         6.5584802030        3.1107787489       20.0476303776
  C         5.8599678844        1.6983710733       18.6444483330
  H        11.4526145810        3.0859410070       22.0346811988
  H        11.9668497996        3.1095132620       20.2759160061
  C        12.7447613747        1.3784674733       21.4680170191
  C        10.2269966346        7.8363071330       17.0235835993
  C        10.2840615234        5.6698022935       15.8469932809
  H         3.3500969414        3.9184357608       28.8499967613
  H         3.6755978467        5.6369561976       29.0051760124
  C         2.3736929957        5.0996862208       30.3753873190
  H         5.6468266764       -1.4024610910       32.6305432129
  C         4.8761577767        0.0555129155       33.8107453125
  H         5.7503432382        0.7057683435       19.1819205776
  H         6.0741589082        1.2702426403       17.6130633389
  C         4.4898586444        2.3848051664       18.3557109569
  H        12.4397062795        0.8331747699       22.3449724258
  H        12.7501894838        0.6198166300       20.6979447669
  C        14.1786107140        1.9353780988       21.6521658297
  N        10.0345807755        8.6869359757       18.1216803737
  C        10.6228194472        8.4796797738       15.8388053447
  C        10.6563645123        6.3198710245       14.6927058970
  H        10.1864863022        4.5929210107       15.8202597625
  H         1.8813547753        4.1891002971       30.7048296356
  H         3.2261642369        5.2893632116       31.0569713852
  H         1.6875641164        5.9201468205       30.4005202446
  S         4.2390516314        1.6025705655       34.2165083423
  C         5.0488434893       -0.9103223373       34.8698502565
  H         4.2722979357        3.1622036381       19.1136035587
  H         4.5044706794        2.8894575980       17.3608725313
  C         3.3189648246        1.3981558890       18.5344841392
  H        14.3644303542        2.8372662722       20.9832994647
  H        14.9150377591        1.1900841931       21.3617693669
  C        14.4916216294        2.2878923438       23.0308931110
  S        10.0687827476       10.2028747293       17.5362579381
  N        10.5164601220        9.8743540902       15.9255158237
  C        10.8849231971        7.8311124539       14.6637189147
  H        10.8505188026        5.6645450585       13.8800122237
  C         4.2943237271        1.0022029388       35.8495306397
  N         4.5609044918       -0.2860084755       35.9969705885
  O         5.5829392886       -2.0116942544       34.7899228005
  H         2.4088395015        2.0125121915       18.6441316189
  H         3.3651223856        0.8104669512       19.4807474130
  C         3.1829028735        0.4304322032       17.4521422114
  H        13.5201393859        2.4798773462       23.5738819919
  H        14.8521152207        1.3829079521       23.5510016215
  C        15.4759558692        3.3999945745       23.0996016365
  C        11.2510925003        8.5064056486       13.4286315608
  S         3.6707760664        1.8588234507       37.2839143628
  C         4.5543177019       -1.0242073071       37.2691441992
  H         3.2061161441        0.9767038291       16.5435859059
  H         4.0584400111       -0.2338481047       17.3657959361
  C         1.9144457004       -0.3631974582       17.4205698949
  H        15.5896923284        3.5021963972       24.1576700291
  H        15.0504530014        4.3836875437       22.7541979866
  C        16.7917850378        3.0449800172       22.5026616395
  H        11.2484167928        9.5859804882       13.6716230438
  C        11.6347329300        8.1640873305       12.1198281610
  H         3.9421167001       -0.6320093046       37.9764058520
  H         4.2408606809       -2.0931154503       37.0582725712
  C         5.9543909656       -1.0573222741       37.9371196648
  H         1.6023705696       -0.4333875504       16.4304352926
  H         1.1944066582        0.2517006890       17.8524612926
  C         1.8283024338       -1.7581039833       18.1926545408
  H        16.8097873654        3.0197190331       21.3719672728
  H        17.4274630193        3.8857307733       22.8131172500
  C        17.4229975296        1.7326571097       23.1322667637
  S        11.9069045049        6.5978673801       11.5129001072
  C        11.8199959583        9.2700138435       11.1076800099
  H         5.8810263403       -1.6914121640       38.8307718970
  H         6.6624741906       -1.5082822230       37.2542674747
  H         6.3097148005       -0.0441742002       38.2424003516
  H         1.2817700192       -1.6762225997       19.1475426420
  H         2.8078302745       -2.1987736080       18.3061236868
  H         1.3380138264       -2.5758057563       17.6711421051
  H        16.9808797440        1.6363334933       24.1359953105
  H        18.5463156753        1.7631069194       23.1206342615
  H        17.0685707219        0.9305436616       22.4413860341
  C        12.1916802612        7.3460406148        9.9346593997
  N        12.1922882001        8.7042862824        9.8878508332
  O        11.6241462638       10.4973312704       11.3285861282
  S        12.6231884221        6.3546329216        8.5079971020
  C        12.1908277587        9.4707722019        8.6246728223
  H        12.3168341909       10.5165175386        8.8326906376
  H        13.0077335538        9.0466667235        8.0104530483
  C        10.7145099401        9.4246645476        7.9345198787
  H        10.7978655864        9.5941426009        6.8427276582
  H        10.2774595738        8.4391244887        8.2020998078
  H        10.0557168271       10.1546263850        8.4024051107
  H         2.1479947557        0.8726699035       12.7666540666
  C         2.8181232190        1.5455254344       12.3835085646
  H         3.7755508994        1.0351258619       12.1641434437
  C         2.3683689477        2.0810847738       11.0123326555
  C         3.0315206911        2.5885525440       13.4203113195
  C         3.4803779252        2.6553877522       10.1485161944
  H         1.5023649747        2.7452024893       11.2697796530
  H         1.8318250683        1.2338512835       10.5203921113
  H         4.0593998383        2.7458859270       13.5379064389
  H         2.6158710753        2.1987256346       14.2978529581
  H         2.5360984505        3.4840805133       13.0760688024
  C         4.3537990476        1.5669704997        9.4612488011
  H         2.9076208218        3.2920510945        9.4978117150
  H         4.0932594399        3.2859794686       10.7281677152
  C         5.0072389637        2.0544740602        8.1506636436
  H         3.7475931054        0.6877129387        9.2815137324
  H         5.0939876306        1.2501837942       10.1864068294
  C         6.4006622186        2.8527507313        8.3359858646
  H         4.3046874714        2.7431510926        7.7189514360
  H         5.0908977032        1.2071615099        7.4917554106
  C         7.6134445472        1.9827077135        8.7543995489
  H         6.6560718025        3.2013445334        7.3529868729
  H         6.0976715342        3.5838842489        9.1186656429
  C         8.8450941885        2.9175196433        9.0829313619
  H         7.9626932356        1.3229080285        7.9709574811
  H         7.3725911614        1.4646200618        9.6560316632
  C         8.4770089601        4.2390136546        9.7993701594
  C         9.3151033111        3.6805132102        7.8774246197
  C        10.0091618413        2.1856548793        9.8402875862
  C         8.7807429987        5.3997084655        9.1128874794
  C         8.0810963496        4.5693974319       11.1485377306
  C         9.2969296389        5.0382750348        7.8551423307
  C         9.7374018295        3.1073602070        6.6893010231
  H         9.5227491849        1.7284365789       10.6860230183
  H        10.3258585806        1.2453751901        9.3460338216
  C        11.1780858115        3.0604757005       10.2073686615
  S         8.3394058506        6.8282673025        9.9106273335
  C         8.0471217751        5.9743472345       11.3187303344
  H         7.8627833220        3.8363423968       11.8580080473
  C         9.7511068624        5.7287412538        6.7482422854
  H         9.7672888121        2.0240569199        6.6348589431
  C        10.2161814752        3.7504459596        5.5832983937
  H        10.7890962826        3.7563725538       10.9011165971
  H        11.5744294737        3.5223695629        9.3344803995
  C        12.3190676888        2.3332296047       10.8530335996
  C         7.7846656435        6.6518635860       12.5915998482
  C        10.2486637440        5.1292704746        5.5581195288
  H         9.6562905952        6.8347497537        6.8514457975
  C        10.7059626088        3.3504947707        4.3790049611
  H        13.2489834840        2.9849800230       10.8815087745
  H        12.5128234122        1.4026543744       10.3632758657
  C        11.9466596657        2.0985331222       12.3267759074
  C         7.8802846920        8.0068208602       12.9713457726
  C         7.4414137042        5.7702371260       13.7560568264
  C        10.6735421939        5.7848355592        4.2775945837
  C        10.8815183104        4.4024503285        3.5543023075
  S        10.9746577315        1.7866116552        3.6876746146
  H        11.0760245814        2.5919136868       12.5584312404
  H        11.7199849643        1.0527647633       12.5081815461
  C        13.0607778936        2.4381654804       13.2946124771
  N         8.3533536124        8.9596739069       12.1063671450
  C         7.5490905123        8.5339313365       14.1556648568
  C         7.2071169173        6.2516152787       15.0600222182
  H         7.1899672935        4.7408586766       13.5488248889
  C        12.0499811859        6.4947232718        4.3157324784
  C         9.5144524022        6.6906487598        3.7312582940
  C        11.2628993521        3.9455356795        2.3071838972
  C        11.3548363493        2.5617521924        2.2054767281
  H        12.9934154411        3.4885402287       13.5764870269
  H        14.0759538702        2.2377660003       13.0049124843
  C        12.7293171464        1.6463690237       14.5791533269
  S         8.2520577324       10.4520332765       12.7813060375
  N         7.5738673731        9.9463199312       14.0950717066
  C         7.2750196067        7.7170084065       15.2194177107
  H         6.9994223494        5.5730645197       15.8298555106
  H        12.0078610352        7.4135434804        4.8657129007
  H        12.3998804266        6.7272036184        3.3812887877
  C        13.2164341088        5.6230412429        4.9391186220
  H         9.4141422673        7.4273238663        4.4851736980
  H         9.8878376914        7.2220774312        2.8012129161
  C         8.0601258986        6.1308730956        3.5377583300
  H        11.4820086565        4.7523087098        1.6052482972
  C        11.6517139165        1.7897151460        0.9689857518
  H        11.6830373710        1.2462001200       14.4750898310
  H        13.2718574336        0.6684913898       14.5509328485
  C        12.9353138274        2.4576590631       15.8742378566
  C         7.0767312847        8.3850952719       16.4406034451
  H        12.8436084288        5.2064695234        5.9015187415
  H        13.2648165322        4.7236454554        4.3276040923
  C        14.5228066249        6.3413943297        5.1083067248
  H         7.4159232865        6.8242470378        4.0188193599
  H         8.0646145785        5.1791729199        4.0357189994
  C         7.8072366363        5.9968170572        2.0714940475
  C        11.7003676203        0.3605623310        0.8679534842
  C        11.8527995779        2.4973508411       -0.2563101013
  H        12.6034222886        3.4502632327       15.8304874952
  H        13.9580241303        2.5154806467       16.2437284279
  C        12.0387745799        1.9772643097       16.9691531174
  H         7.4062699604        9.3836898775       16.4363275795
  C         6.7477847925        7.9259378954       17.6624923428
  H        14.4707878722        7.2886142142        5.6494253241
  H        14.8274068051        6.4899350403        4.0692659598
  C        15.5900788059        5.4791444965        5.7710797654
  H         8.2556516146        6.8944403018        1.6726389595
  H         8.4474465496        5.2380486944        1.7804795871
  C         6.3316393661        5.7912635599        1.6083420236
  N        11.4398547538       -0.4690856972        1.9141614084
  C        11.9537919576       -0.3473120544       -0.3033090505
  C        12.1873445707        1.8627684121       -1.4015693615
  H        11.8883879687        3.5309411626       -0.2214851118
  H        12.1624359922        2.5903542029       17.8772967129
  H        12.2802801827        0.9336102566       17.2371760499
  H        10.9622037717        2.0425593208       16.6630008383
  S         6.4436343936        6.3478335031       18.2294671987
  C         6.7702172830        8.9950642563       18.6693300429
  H        15.1668653131        5.0159943144        6.6878386054
  H        15.9084000690        4.8142899085        5.0292710172
  C        16.8722401107        6.1745959463        6.2524502846
  H         5.9230927360        4.8253386313        1.9523722649
  H         6.2971585798        5.6702748927        0.5896275212
  C         5.3375092152        6.8978747557        1.9956525595
  S        11.4855762797       -1.9592914403        1.3233186713
  N        11.7927160616       -1.6848973460       -0.1861656690
  C        12.1625966386        0.3578671484       -1.5556570523
  H        12.4629815201        2.4620993093       -2.2493367692
  C         6.3097041231        7.0898641056       19.8269932732
  N         6.4327658269        8.4125056996       19.8291099987
  O         6.7948544979       10.2000166559       18.3525555318
  H        17.3614689860        6.7666599510        5.4900475806
  H        16.5928647760        6.9335714468        6.9813660412
  C        17.7020855813        5.1666918940        6.9703317974
  H         4.3732814043        6.4021523908        2.0096344924
  H         5.4158430001        7.3232311535        2.9676789971
  C         5.5447808605        7.9966837502        1.0008702531
  C        12.4270715142       -0.4270772255       -2.7550648887
  S         5.8812346822        6.2677058252       21.2954333583
  C         6.3680306147        9.2463755439       21.0270402880
  H        17.2533793067        4.5907246703        7.7729482857
  H        18.0516418095        4.4481268975        6.2140916930
  C        18.9233290624        5.8759291772        7.5142947554
  H         5.5473929514        7.5409161218        0.0224284108
  H         6.3987663638        8.5952446128        1.2328815646
  C         4.3715805016        8.9984536272        0.8659937927
  H        12.1356427135       -1.4221821020       -2.6196804209
  C        12.8186283585       -0.1559830318       -4.0190031263
  H         5.4431645606        8.9675121103       21.6040827082
  H         6.1464569672       10.2655619377       20.8003694990
  C         7.6234275620        9.1230630672       21.8186929854
  H        19.3339547382        5.3751509964        8.2785393510
  H        18.6410431203        6.8403947413        7.8477444113
  C        20.0453634538        6.0965734338        6.4336391911
  H         4.0292012840        9.0273276509       -0.1655152576
  H         3.6984873582        8.5645606116        1.4719615568
  C         4.6096589124       10.4646283583        1.3120073060
  S        13.3493177319        1.3961698717       -4.4889100658
  C        13.0073886305       -1.3149718480       -4.9846651645
  H         7.7570372907        9.9474731209       22.5688932442
  H         8.5178457026        9.0111512793       21.1883167669
  H         7.5332493122        8.2387261061       22.3839842155
  H        20.6663141301        5.1980334545        6.2260336143
  H        19.7360656819        6.3742502792        5.5012382761
  H        20.6320873501        6.8100975229        6.9342522274
  H         4.9390417956       11.1162075569        0.4494897213
  H         3.7241548363       10.9165848915        1.6583857547
  H         5.3290991098       10.4753231156        2.1304761083
  C        13.9995645623        0.5563366161       -5.9509141768
  N        13.7536154919       -0.8056639156       -6.0210387761
  O        12.5639922427       -2.4915135690       -4.8334577292
  S        14.7373424562        1.3197732171       -7.2794733809
  C        14.0695866639       -1.7022939121       -7.1061148847
  H        14.0709622683       -2.8367335332       -6.7721334740
  H        15.0726059783       -1.4844071260       -7.4495558746
  C        13.0489118644       -1.4916992573       -8.2562898420
  H        12.0655661472       -1.2729310488       -7.7344654507
  H        12.8980274087       -2.3533991324       -8.8550779534
  H        13.2441952798       -0.5445087087       -8.7997208945
