352
 i =    75500, time =    37750.000, E =        98.9447004056
  H        12.6597314253        6.6684210692       32.1672568910
  C        11.9803499384        5.8338127603       32.1788568495
  H        12.6563633949        5.0259399785       32.0371835309
  C        10.8441647912        5.7919301694       31.0995922378
  C        11.5121982548        5.5061648645       33.6059394102
  C        11.4769984515        5.6860009100       29.7519189443
  H        10.1781181488        4.9532232401       31.3541400405
  H        10.3717753243        6.7474589884       31.0680450550
  H        11.1625713720        6.3758353341       34.1711093580
  H        10.6118023216        4.8458965982       33.5297276276
  H        12.3486810961        5.1577946810       34.1383780710
  C        10.4370320784        5.8345563969       28.6636428835
  H        11.9054614896        4.7429484378       29.6607707197
  H        12.1979203653        6.5055656691       29.6104260304
  C        10.9407801448        5.7100289732       27.2171480968
  H         9.6911641878        5.0142291907       28.8749757199
  H         9.9977444991        6.8155377908       28.7086126117
  C         9.9440319234        4.9675639545       26.2379568368
  H        11.8159418591        5.0653277121       27.2436454740
  H        11.1588163832        6.7244168204       26.8699778613
  C         8.6770284256        5.9164544387       25.9582028174
  H        10.3999669964        4.6477067665       25.2719293745
  H         9.5954094946        4.0652167881       26.6675955834
  C         7.4802489639        5.2317794027       25.2457931046
  H         8.3817908805        6.3603176674       26.8943081022
  H         8.9573162322        6.8064047962       25.3742799815
  C         7.1139313320        3.9543510840       25.9983231110
  C         7.8877892756        4.4117295445       24.0556202106
  C         6.2203350116        6.1452089504       25.0729583907
  C         7.3393622887        2.8190947011       25.2812715754
  C         6.5170861205        3.5485825140       27.3030778275
  C         7.7248060192        3.0908641799       23.9671063229
  C         8.3746847287        4.9460166565       22.8574952075
  H         6.3886538524        6.9603827545       24.3357446564
  H         6.0750410913        6.6993362443       26.0485102025
  C         4.9129458192        5.4713409404       24.6491356622
  S         7.1181331553        1.3100338220       26.0620200885
  C         6.6608411848        2.1978351095       27.4374995292
  H         6.1766868147        4.2772368007       28.0082635928
  C         8.0793366937        2.4027816066       22.8200949976
  H         8.3651177595        6.0006855981       22.7516542140
  C         8.6121159103        4.2960624855       21.7058423287
  H         5.0361986020        5.1201813679       23.6197862135
  H         4.7831596000        4.5848258451       25.2153301983
  C         3.7032879343        6.4466910784       24.7275001931
  C         6.2475568028        1.4014084058       28.7100756556
  C         8.5344332900        2.9663752652       21.5924923596
  H         7.8288819280        1.3723923289       22.9334076145
  C         9.0695482859        4.7517705041       20.4738728479
  H         2.7285745273        6.0611132420       24.2781659647
  H         3.8357103522        7.3280295132       24.2151277410
  C         3.2792755936        6.6880990012       26.1932685374
  C         6.1588888423       -0.0111618415       28.8794046553
  C         5.9044242813        2.2715987906       29.8334955326
  C         8.9703280830        2.3095238203       20.3697621123
  C         9.2954550856        3.6872725051       19.6358330118
  S         9.3745660954        6.2231733412       19.8160149800
  H         2.2996283227        7.2073283722       25.9975198154
  H         4.0242501411        7.2348677426       26.6937068175
  C         2.9710508719        5.3985327242       26.8711950489
  N         6.4236969827       -1.0359391269       27.9751523509
  C         5.9290732590       -0.5218219839       30.1659855647
  C         5.6097668179        1.7517412920       31.1006658400
  H         5.8791742304        3.3296407345       29.7635356981
  C         7.7688190228        1.4682493121       19.7934035974
  C        10.2376810151        1.3522382169       20.5371650609
  C         9.6101579714        4.0957037564       18.3247929456
  C         9.7226271138        5.4386638478       18.2459294037
  H         2.4843006106        4.7126603649       26.1910998300
  H         3.9130222384        5.0111887553       27.1510720537
  C         2.1295487117        5.5996131972       28.1269245358
  S         6.0979021864       -2.4763743948       28.6833692983
  N         6.0084242952       -1.9310217222       30.2098633888
  C         5.7343028644        0.2557226397       31.3787424074
  H         5.4712628373        2.4339654065       31.9390193722
  H         7.3949723528        0.7260454218       20.4471891195
  H         8.1414080210        0.8191014721       18.9915261688
  C         6.5515221701        2.3172736147       19.2874373085
  H        10.3513559322        0.7265849636       19.6648052513
  H        10.1234482376        0.6957684759       21.3556968986
  C        11.5859759264        2.1662378144       20.7682590383
  H         9.6434078052        3.3504431386       17.4832303095
  C         9.9827918517        6.2364588659       16.9917366230
  H         1.5215964507        4.7681034292       28.2838988399
  H         1.5226257429        6.4495203122       28.0625399131
  C         2.8835565828        5.7978544394       29.4146167843
  C         5.4654245601       -0.4345361776       32.5974854908
  H         6.9173571751        3.0937854573       18.5392919163
  H         6.2300177911        2.8519111689       20.1603044931
  C         5.4669172566        1.4312437345       18.7030832997
  H        11.4404409829        2.8353012790       21.5671645292
  H        11.7940205800        2.8690992163       19.9959203132
  C        12.7988399921        1.3704427125       21.0196102986
  C        10.0475584367        7.5999898440       16.8962044381
  C        10.3335383937        5.4950783396       15.7628473113
  H         3.3088239229        4.8508807412       29.6499256485
  H         3.8137153011        6.3584244058       29.3752020821
  C         2.0331083031        6.2517347006       30.5229626331
  H         5.5996512769       -1.4677074783       32.5605837372
  C         5.0267917403       -0.0460590533       33.8804790595
  H         5.1029384470        0.7638134464       19.5407430092
  H         5.9340149828        0.8664486902       17.8929458223
  C         4.2815407076        2.3221472799       18.1434147878
  H        12.5892199396        0.8488844957       21.9267060300
  H        13.0707716264        0.5554505693       20.2424718728
  C        14.1030779504        2.0416398660       21.3967079712
  N         9.9651768216        8.4790667924       17.9450692631
  C        10.3653774925        8.2129968823       15.6928457291
  C        10.7171641916        6.1122502168       14.5938859973
  H        10.3212224285        4.4053434148       15.7124993494
  H         1.3141776279        6.9939245241       30.1688221566
  H         1.4172138631        5.5393664164       30.9690540517
  H         2.6930994542        6.7274220105       31.2250126575
  S         4.7184206687        1.6250058972       34.4509363130
  C         4.8562252359       -1.1117550849       34.8932550388
  H         4.2461269880        3.2261868372       18.7611165953
  H         4.4396250411        2.7306546723       17.1562364599
  C         2.9835038439        1.6070093728       18.4195221891
  H        14.3152791611        2.8570887891       20.6874203380
  H        14.9011937941        1.3066817977       21.1899596441
  C        14.2344183526        2.4394834502       22.8714903666
  S        10.0365877309        9.9619325046       17.3457868320
  N        10.3399177226        9.5993407940       15.8046773735
  C        10.7230975125        7.5854006705       14.4826844508
  H        11.0620973417        5.5297061271       13.7600910109
  C         4.5364283832        0.8366695201       36.0955075864
  N         4.5729228425       -0.5535982527       36.0611645729
  O         4.9420031575       -2.3405151010       34.6854224693
  H         2.1349948755        2.2224824570       18.5123245886
  H         3.0201997073        1.2714556101       19.3955276263
  C         2.8095299034        0.4881261902       17.4677311133
  H        13.2149622895        2.6739966253       23.1687225969
  H        14.5367269629        1.5741571355       23.3809263224
  C        15.2949898410        3.4522375298       23.1275421127
  C        11.2085213474        8.3614511579       13.3524541104
  S         4.0325309013        1.7018737215       37.5988871602
  C         4.4877031570       -1.2691633778       37.3593795196
  H         2.7770043420        1.0419462179       16.5073602674
  H         3.6168597360       -0.1716079567       17.4817916409
  C         1.5844672657       -0.4348394190       17.7298535685
  H        15.4366149737        3.6413913176       24.1857253018
  H        15.0225362503        4.4159388118       22.6786095813
  C        16.7025158781        3.0180485692       22.6386560049
  H        11.4422934542        9.4111338595       13.7429750190
  C        11.6655951791        8.1008947889       12.0644153615
  H         3.7413076219       -0.8313368373       38.0024114377
  H         4.1916997070       -2.3811102884       37.1554556405
  C         5.8699747161       -1.2001925302       37.9972240656
  H         1.0471691141       -0.6142820453       16.7579089242
  H         0.8006314638        0.0159176565       18.4666115931
  C         1.9885059664       -1.7096136630       18.2986590503
  H        16.7160228000        2.6454299627       21.6130207773
  H        17.3456707318        3.8527682636       22.6942223214
  C        17.2699983199        1.9313646476       23.5351621242
  S        12.0302687033        6.6338305328       11.3653455340
  C        11.7687165134        9.3008026895       11.1675473717
  H         5.9856310618       -1.8290331512       38.8661700563
  H         6.6355921968       -1.4757857370       37.1931871418
  H         6.1993533972       -0.1678738190       38.3251060402
  H         2.3379083532       -2.3710577974       17.4544702574
  H         1.2537620177       -2.2463365184       18.9528315158
  H         2.8125788301       -1.6390834761       19.0351188758
  H        18.3905260405        2.0238323314       23.5198349550
  H        16.9511962126        0.8984496414       23.3433291934
  H        17.0066814872        2.0494333629       24.6083955518
  C        12.3679401246        7.6320521331        9.9172806549
  N        12.2665240660        8.9724030951       10.0023569859
  O        11.3428396488       10.4000239272       11.4838335328
  S        12.9923286509        7.0399698253        8.3341987032
  C        12.2973303040        9.9468362660        8.9257300779
  H        12.6204926332       10.9278881724        9.2966510224
  H        13.1086439412        9.6878663542        8.1988315143
  C        10.9708318534       10.1658566815        8.2082774001
  H        10.0896784972       10.3402420979        8.8132631919
  H        11.0367878719       10.9609168019        7.4776141903
  H        10.7982968619        9.3045667586        7.5435850068
  H         2.8017656662        1.4637693303       13.3262685190
  C         3.5956712973        2.0851570857       13.0145805948
  H         4.4036030694        1.4335809464       12.7683693975
  C         3.1466334272        2.8575591368       11.7560506874
  C         3.8204449476        2.8997969953       14.2193768974
  C         4.1969788275        3.1442824939       10.6449619103
  H         2.7096314019        3.8176450920       12.0773089915
  H         2.3349956240        2.4240742398       11.1983276838
  H         3.6429496139        2.2238556785       15.0633124520
  H         3.0552373168        3.6490037053       14.3012850864
  H         4.8702779242        3.2215439696       14.2704513261
  C         4.6675929907        1.7802358755       10.0008612330
  H         3.6630387865        3.7480738168        9.9407222376
  H         5.0435340768        3.8382475420       10.8493380920
  C         5.2702281457        1.9940229698        8.5721159830
  H         3.9234780907        0.9229830973        9.9862671499
  H         5.5017409780        1.4365947755       10.5932338179
  C         6.5643564597        2.8062766013        8.4595240988
  H         4.4527776573        2.4914958912        8.0245853698
  H         5.5414090214        1.0280992411        8.1539764493
  C         7.8919408172        2.1096498017        8.9464046504
  H         6.8301017133        3.0065326454        7.4263319583
  H         6.3314795796        3.7517831935        8.9726852998
  C         9.1340074961        2.9730602851        9.0414203154
  H         8.1428271362        1.2666877300        8.3096235655
  H         7.6456266999        1.6992355433        9.8908846918
  C         8.8331786726        4.2787580662        9.7031622798
  C         9.5419848221        3.5917745549        7.7777129998
  C        10.3025199603        2.1776794388        9.7785800829
  C         9.0266334987        5.4030213007        8.8708139143
  C         8.2884717786        4.6440036667       10.9381623732
  C         9.5551340965        4.9606149190        7.6890549712
  C        10.0212010469        2.9777227277        6.6342023944
  H        10.0237797857        1.8121723866       10.7447640100
  H        10.5262968583        1.3410146058        9.0949154208
  C        11.5645871069        2.9318938586        9.9336093257
  S         8.5368012616        6.9181215792        9.6124925265
  C         8.1714076553        6.0266714532       11.0598466492
  H         7.9013523947        3.8764852352       11.6219317372
  C        10.0353055063        5.5702255406        6.5532727512
  H         9.8533136430        1.8920501983        6.6472559928
  C        10.5606782298        3.6135634492        5.5272705691
  H        11.2960066835        3.9852860865       10.2461703870
  H        11.9792301455        3.1264554617        8.9507857797
  C        12.6340261971        2.3122322391       10.8522036647
  C         7.7233072351        6.7195054360       12.3124254028
  C        10.6354839825        4.9316469414        5.4488497409
  H         9.9484707431        6.6415382924        6.5635667312
  C        11.0612923203        3.1705182246        4.3117232658
  H        13.5511140693        2.8361676416       10.6995231515
  H        12.8003506463        1.2696491253       10.6069368052
  C        12.2380499861        2.3978370703       12.3019814289
  C         7.8737207832        8.0959010641       12.6305396369
  C         7.1268968845        5.9035335345       13.4404841507
  C        11.1653429280        5.6087743993        4.2356216185
  C        11.3821429094        4.2219150802        3.5114430081
  S        11.3595664963        1.6310131414        3.5775202885
  H        11.9779175231        3.3973104103       12.5669648497
  H        11.3641847259        1.8032214796       12.4718069820
  C        13.3607012473        1.9883613149       13.2987726561
  N         8.4773616042        9.0193505253       11.7403457474
  C         7.4967788261        8.6440158355       13.8273496250
  C         6.8807695852        6.4345521842       14.7166065900
  H         6.8117523785        4.8632665091       13.3331086772
  C        12.4899261634        6.3717923362        4.5541517472
  C        10.0914901064        6.3852830893        3.4106801164
  C        11.6494899654        3.8434750816        2.1816862982
  C        11.6197389328        2.5066839977        2.0808402255
  H        13.8956061942        2.8748612513       13.6772393274
  H        14.1724418234        1.4637826224       12.7870480007
  C        12.8071317962        1.2226683352       14.4953064819
  S         8.4614070977       10.4991049496       12.3983618600
  N         7.7882033999       10.0281841329       13.8757638931
  C         7.0838366054        7.8760933201       14.9798495014
  H         6.2770082784        5.8680178821       15.4468744700
  H        12.1917218276        7.0368609907        5.4213620308
  H        12.6886503029        7.0883331888        3.8002635702
  C        13.7352821774        5.5771371025        4.8962063497
  H         9.6046476966        7.0045961516        4.1455419190
  H        10.6149363433        7.0236495207        2.6813389975
  C         9.0082767211        5.6552074071        2.6264508258
  H        11.9557425118        4.5774183758        1.4403102230
  C        11.8890592993        1.7301140010        0.8316526353
  H        12.2205421546        0.3855478547       14.1835828402
  H        13.7893009997        0.8179597997       14.8838732009
  C        12.0268519836        2.1654901429       15.3221786974
  C         6.9539057950        8.5272421917       16.2429839967
  H        13.6518267710        5.0687936071        5.8685488129
  H        13.8184079237        4.7415629802        4.1600530279
  C        15.0265157088        6.3844900486        5.0613826337
  H         8.7791455219        4.7062665531        3.0619052100
  H         9.5029391225        5.5780969008        1.6185605232
  C         7.6610797048        6.3464690855        2.4823366783
  C        12.0061628357        0.3530810957        0.6527363226
  C        11.9820685386        2.5484306312       -0.4273622092
  H        10.9354750034        1.9141890058       15.3457267297
  H        11.9673148356        3.1355734219       14.8733240851
  C        12.4785552297        2.3770670163       16.8100966981
  H         7.1751577062        9.5494058987       16.3036225648
  C         6.6416112025        8.0486414110       17.5106721115
  H        14.8232574482        7.2778087984        5.6834951361
  H        15.3467763233        6.6203090157        4.0496911648
  C        16.1098509896        5.5268607090        5.7588683577
  H         7.2932983030        6.6281484004        3.4821644022
  H         7.7952533489        7.1863825809        1.8320560750
  C         6.5029472928        5.4482600253        2.0323962581
  N        11.8903075551       -0.6075475158        1.6794159100
  C        12.2126698874       -0.2776564122       -0.5825315255
  C        12.2255534311        1.9532717323       -1.6475509778
  H        11.8186939149        3.6547037378       -0.4586564681
  H        13.5183220261        2.2582119491       16.8470950588
  H        12.0014774582        1.6833169546       17.5407553421
  H        12.2726124062        3.3926457884       17.2102504959
  S         6.1659202751        6.4658420161       18.0379350628
  C         6.6291640588        8.9848460287       18.6511207389
  H        15.7496669980        4.8532117993        6.5536936658
  H        16.6089130882        4.8881946942        5.0591477526
  C        17.0995951162        6.4580787732        6.4179409195
  H         6.4739846182        4.5747067496        2.7638120892
  H         6.6721651274        5.0355269725        1.0711108355
  C         5.1845196905        6.1831907810        1.9202149522
  S        11.8717793500       -2.0923876727        0.9779914643
  N        12.1662434398       -1.6596024132       -0.5505471064
  C        12.4773843750        0.4771818140       -1.7545219284
  H        12.3480229638        2.6033300846       -2.4930490043
  C         5.8982748703        7.1236459294       19.6347238807
  N         6.1925599472        8.4276475712       19.8198792865
  O         6.8909048835       10.1692738638       18.4620634436
  H        17.5689372420        6.9410390392        5.6394348783
  H        16.6598565261        7.2802293525        7.0270346637
  C        18.1072567058        5.6690633529        7.2939170665
  H         4.4934579818        5.4727230056        1.4900476378
  H         4.7900889407        6.4393694996        2.9023272861
  C         5.3131593605        7.5237371726        1.2254120299
  C        12.7821911882       -0.3043016492       -2.9177719434
  S         5.6291454468        6.1455297066       21.1062935186
  C         6.1617513192        9.1201279609       21.1128093455
  H        17.8837299149        5.6970469947        8.3236045123
  H        18.0681505528        4.6216098590        6.9864150370
  C        19.5914662880        6.1198585386        7.2186191754
  H         5.7404075683        7.1780995002        0.3170582410
  H         5.8782578097        8.3586418574        1.6471554228
  C         3.9185159492        8.0828934332        1.0381570015
  H        12.5551546702       -1.3453185452       -3.0565606242
  C        13.2190124003        0.0341670877       -4.1780248999
  H         5.4588207052        8.6525453849       21.7470347281
  H         5.8197665407       10.1235663255       20.8303613616
  C         7.5527049913        9.1845144360       21.7195920706
  H        20.1508093349        5.3761644704        7.7850076577
  H        19.8373231301        6.9537649120        7.7327415384
  C        20.3420023735        5.9839009940        5.9348363017
  H         3.5499540962        7.6497804547        0.0446303165
  H         3.2547923499        7.7352222818        1.8479146392
  C         3.8809100287        9.6280539011        1.0445858896
  S        13.7189434189        1.5989466977       -4.5796481220
  C        13.2142384637       -1.0049063765       -5.2617104116
  H         7.9912602078        8.2168923915       21.8561693483
  H         7.4352942972        9.7192144439       22.7086685977
  H         8.2828357368        9.7581297225       21.1461529950
  H        20.4897022259        4.9361806950        5.6090679564
  H        19.8330519501        6.4901940763        5.1214075431
  H        21.2937178499        6.4658138110        5.8875047817
  H         4.5650631560       10.1683973136        0.4424964932
  H         2.8565217383        9.9965290782        0.9682238167
  H         4.2045946451        9.9826431852        2.0139697232
  C        13.9795052611        0.9196645507       -6.1956814382
  N        13.8371318664       -0.4349240648       -6.3057242918
  O        12.8507029974       -2.1876655400       -5.1731757077
  S        14.4686010779        1.8422669151       -7.5938812492
  C        14.0269265219       -1.2323882647       -7.5362400452
  H        14.2882171705       -2.2705089117       -7.3398947236
  H        14.8713605769       -1.0757621539       -8.1219605082
  C        12.7757490491       -1.0806397246       -8.4301667337
  H        11.9630102906       -1.3327189634       -7.8078803877
  H        12.9106163159       -1.7297307124       -9.3555161029
  H        12.6958316253       -0.0494429143       -8.6915839341
