352
 i =    51000, time =    25500.000, E =        98.3250782670
  H         9.8980303814        4.1300428443       32.4852757986
  C        10.3785526053        5.0170890500       32.8338856621
  H         9.8124671372        5.5352070090       33.6326598357
  C        10.5174963781        5.9769530100       31.6225551927
  C        11.6321063181        4.7446713326       33.5993226794
  C        10.5238704164        5.1548464900       30.2567195967
  H         9.7957889363        6.7314256959       31.6650689647
  H        11.4337181010        6.5488850860       31.7005722070
  H        12.5464212973        4.6938347972       33.0124541253
  H        11.7583637156        5.5220313108       34.3643402024
  H        11.5880191137        3.8818145247       34.1789647435
  C        10.4434759943        6.0859345638       29.0738614422
  H         9.6580908493        4.5951547523       30.1756190117
  H        11.4455767859        4.6046876900       30.2183332193
  C        10.7033245139        5.2807531158       27.8567192183
  H         9.4854107201        6.5689316589       29.1467518257
  H        11.2240373931        6.8480446049       29.1131071698
  C         9.3903371492        4.6632921419       27.1812523177
  H        11.3542170043        4.4300588814       28.0177633170
  H        11.1887964429        5.8963750864       27.1275078598
  C         8.4703772873        5.6729936684       26.5166982682
  H         9.6226674535        3.7639589017       26.5232698908
  H         8.8305488448        4.1640541208       27.9594751291
  C         7.2748320814        5.0150657763       25.6832843503
  H         8.1440879427        6.3299477812       27.3772307826
  H         8.9022044499        6.3485769054       25.8137818676
  C         6.7130481661        3.7450876073       26.2996456581
  C         7.6744277367        4.3133638833       24.4452594402
  C         6.1466577537        6.0719848767       25.4604515333
  C         6.9090561471        2.6378910020       25.5018129995
  C         6.0753402174        3.3535374737       27.5058762706
  C         7.5759568850        2.9435834922       24.3221633762
  C         8.1270702969        4.9220297297       23.3247683906
  H         6.5845079229        6.8805149807       24.8277364795
  H         5.8300242788        6.4521903211       26.5183387359
  C         4.9777126816        5.5705505635       24.6502951899
  S         6.2512810159        1.2017023909       26.0884736046
  C         5.9058736176        2.0010170831       27.5638532463
  H         5.9268576226        4.1405236139       28.2855920865
  C         7.9719789239        2.2611067522       23.1653872187
  H         8.0793418874        5.9855666176       23.1785356755
  C         8.4020409827        4.2510149692       22.1540229657
  H         5.3859899106        5.5616010945       23.6445946212
  H         4.6832061916        4.5040773939       24.9593161355
  C         3.7078494952        6.4959766955       24.6873338212
  C         5.5054166366        1.3105690777       28.7990695627
  C         8.4139119852        2.8893718507       22.0051261206
  H         7.7121195023        1.1698553182       23.0690686135
  C         8.7551226911        4.6973659417       20.9053996475
  H         3.0110056597        6.2419525966       23.8399663150
  H         4.2186403380        7.4792577364       24.4586426948
  C         3.0767624298        6.6150954729       26.0879877085
  C         5.5366922650       -0.0706302039       29.0684697792
  C         5.1245086429        2.1215672192       29.9365657829
  C         8.8159615674        2.2332657797       20.7186585928
  C         9.0384893818        3.5632671352       20.0891838782
  S         8.9617871809        6.2710064519       20.1565630917
  H         2.3587332843        7.4036469000       25.9488453261
  H         3.7336438933        6.9980769982       26.8488499707
  C         2.3480179385        5.3168546002       26.4911423544
  N         5.9539213627       -0.9787349022       28.1441058795
  C         5.2808842822       -0.6669433487       30.3257278642
  C         4.8432983194        1.6033021289       31.2221352610
  H         4.9297826401        3.1771137099       29.9582092569
  C         7.7233724975        1.3341184934       20.0267911342
  C        10.2073201395        1.6188314151       20.6635230994
  C         9.3600377469        4.0164269363       18.7941844424
  C         9.4269875705        5.4242402661       18.6752302347
  H         1.7393237847        5.1264072267       25.6548132473
  H         2.9934028383        4.4430758791       26.7316897933
  C         1.4390812168        5.5173736150       27.6550231702
  S         5.8152770368       -2.4806052328       28.8202129469
  N         5.1972939112       -2.0204347868       30.3013155088
  C         4.9795881923        0.1219153442       31.4828072839
  H         4.4065725746        2.3688762492       31.8758081125
  H         7.6011422267        0.2938810812       20.6173028057
  H         8.0317822468        0.9665975314       19.0334981753
  C         6.3420938401        2.0940922159       19.9212911111
  H        10.6260200326        1.2883921152       19.6910128014
  H         9.9227409603        0.6295737917       20.9554179387
  C        11.2979436016        2.2663798714       21.4751879040
  H         9.4592455248        3.2581930735       17.9776519547
  C         9.6890291433        6.2117688830       17.4254814610
  H         0.5721389210        4.8382465454       27.6240399600
  H         0.9141809381        6.4552660793       27.7343798887
  C         2.0966291971        5.1753085601       29.0334004856
  C         4.7978415906       -0.4926380827       32.7931011436
  H         6.4083422210        3.0856239730       20.3347443700
  H         5.7092728275        1.5724691693       20.6147890185
  C         5.6813653076        1.9564106020       18.5098729796
  H        11.0184771805        2.4992992077       22.4873013180
  H        11.5031942666        3.2763147575       21.1041220196
  C        12.6270882126        1.5020934429       21.3420626927
  C         9.8435514412        7.6051105192       17.3317958218
  C         9.8353996589        5.4809530171       16.1369116268
  H         2.4209698374        4.1645498103       29.2393200256
  H         3.0113819786        5.7360680315       29.1561138881
  C         1.1988526234        5.3797148530       30.2464442528
  H         4.9371472581       -1.5461946486       32.7537811862
  C         4.5287768822       -0.0468069931       34.0268529764
  H         5.9391739592        0.9864901352       18.0662656991
  H         6.2274114038        2.6817057683       17.8529550980
  C         4.2550276920        2.4436183976       18.3579284749
  H        12.5034722760        0.5779822659       21.9136591094
  H        12.8733582607        1.1832420563       20.3158156754
  C        13.8239742450        2.3360821270       21.8899286641
  N         9.6605870644        8.4777264860       18.4694167010
  C        10.1481316574        8.2751020652       16.1551711499
  C        10.1736523921        6.1768849211       14.9598287517
  H         9.6282441193        4.3699726272       15.9198083594
  H         1.6391151539        4.9757037067       31.1265062166
  H         1.2339236371        6.4871228345       30.3606560155
  H         0.1467833647        5.1708554191       30.1685811253
  S         4.0945417977        1.5276476494       34.3742928948
  C         4.6299029109       -1.0678045026       35.0943112508
  H         4.1864631465        3.3843759098       18.9398185946
  H         4.0471699801        2.6774881299       17.3243116557
  C         3.1988963150        1.4910174261       18.8848627504
  H        13.5829499255        2.9437057162       22.8066353749
  H        14.0026518250        3.1510373867       21.1511505094
  C        15.1646517482        1.5565664725       22.0583002564
  S         9.6941183567        9.9717859721       17.8764986533
  N        10.2330964044        9.6314536245       16.3591717782
  C        10.3725809572        7.6404504031       14.8953523216
  H        10.3447716852        5.7012095165       14.0160292762
  C         4.0450479722        0.8989807220       36.0587033187
  N         4.2422346125       -0.4339668464       36.2080295098
  O         5.0856447015       -2.2196932312       34.9476640620
  H         2.2885510661        1.9178038989       19.1585712943
  H         3.6117734614        0.9348750091       19.7011730928
  C         2.8411294418        0.4594927358       17.7419019700
  H        15.0566985361        1.0996397593       23.0499495058
  H        15.1762971067        0.7598626167       21.4000082481
  C        16.4610218686        2.3302562069       21.9082816614
  C        10.6683535723        8.4471246407       13.7518117745
  S         3.6286426233        1.8392629371       37.5048041897
  C         4.0720302469       -1.1376315154       37.5071495483
  H         2.6690914974        1.0998446469       16.8612324385
  H         3.7531659125       -0.0718985925       17.5336912876
  C         1.8126710768       -0.6557213595       18.0088754562
  H        16.3315985686        3.3890234280       22.1779065652
  H        16.7487005064        2.3560310017       20.9182996092
  C        17.6803217400        1.5626710309       22.5223220645
  H        10.5739481458        9.5186750957       13.9130266804
  C        11.0585861018        8.2304027920       12.4554794469
  H         3.2493523745       -0.7640825727       38.0941940590
  H         3.7500312524       -2.1386018193       37.2761604851
  C         5.4384055053       -1.1503299957       38.2455466152
  H         0.8641144123       -0.1933523640       18.1175823731
  H         1.9289045996       -1.0832366119       19.0132287555
  C         1.6133162113       -1.7122394158       16.8810747838
  H        17.7756307501        0.6479726139       21.9083927497
  H        18.5958656875        2.2116310788       22.2950720718
  C        17.5266752203        1.4215929585       24.0320926727
  S        11.2588366868        6.7446257702       11.6960232115
  C        11.2025976999        9.4148872646       11.5942526500
  H         5.3229938234       -0.4854843657       39.1374476953
  H         5.6698142040       -2.0822314534       38.7461721077
  H         6.3791520961       -0.8571242005       37.7571606018
  H         0.9564916069       -2.5930002099       17.1829417886
  H         2.4934803987       -2.2336285691       16.7502804145
  H         1.2359102537       -1.2673996533       15.9167587381
  H        17.4207826927        2.4195912902       24.4451529593
  H        18.5408147700        1.0943644336       24.2224780851
  H        16.8575915575        0.6449238660       24.3826492828
  C        11.7058444682        7.6626797869       10.1718255230
  N        11.6036005697        9.0290523619       10.3996048868
  O        10.8704474296       10.5896837199       11.9408849666
  S        12.0662282403        7.0586713252        8.5951546592
  C        11.7792692447        9.9528586346        9.3428287801
  H        11.9752956440       10.9685522597        9.7649079207
  H        12.7433885454        9.8447153420        8.7409066972
  C        10.5374542891       10.0699383115        8.5948356787
  H         9.6007003076        9.8129518950        9.1173410921
  H        10.3375130659       11.1222460952        8.4192271875
  H        10.5111492598        9.4481528303        7.6731476864
  H         4.1250233803        0.9077671129       12.6058642861
  C         3.8899053798        1.9570659704       12.7791461929
  H         4.8294682396        2.5230309485       12.8047894637
  C         2.9812774412        2.5129369006       11.6840188476
  C         3.1018427342        2.0742598343       14.1135263894
  C         3.8588714290        2.6466525553       10.4357702276
  H         2.6888525368        3.4782451028       11.9808215224
  H         2.1295357022        1.8797288335       11.5775775667
  H         3.8166795452        2.3432240627       14.9054774145
  H         2.6400530826        1.1623034610       14.5376253679
  H         2.3216557185        2.8626670627       14.1019602459
  C         4.2978360878        1.3930156531        9.6969268932
  H         3.4694733202        3.2524972057        9.6026550902
  H         4.7538494014        3.1374008254       10.8233681844
  C         5.0610656100        1.6191010580        8.4339135979
  H         3.4729515106        0.7905186369        9.2865874439
  H         4.9245685718        0.7818556765       10.2184465882
  C         6.2960554197        2.5718868534        8.5467708451
  H         4.1991096726        2.1442316112        7.9203327647
  H         5.2391901525        0.8118466935        7.7631431848
  C         7.6195530443        1.8800394204        8.8809553104
  H         6.3845222736        2.9733304563        7.5960331362
  H         6.1601761125        3.2635284811        9.3175910007
  C         8.8357276139        2.8579565910        9.0844883281
  H         7.9011209739        1.2514086667        8.0661223930
  H         7.4276968103        1.2578177528        9.7515714335
  C         8.5328555689        4.2048186008        9.7341687062
  C         9.0999911211        3.6200495820        7.7788564023
  C        10.1543126567        2.2873969064        9.7632890187
  C         8.6266841443        5.3220801723        8.8980504640
  C         8.0421227221        4.5685899914       11.0359353097
  C         9.0691411736        4.9764717252        7.6445845253
  C         9.5441275227        3.0067947076        6.5842098782
  H         9.8848691002        1.9534818669       10.8215628270
  H        10.4347078889        1.4061159724        9.2258154679
  C        11.3291906769        3.1672045909        9.9190059463
  S         8.2131070499        6.8409626728        9.6725796175
  C         7.7997752689        5.9267159864       11.1406721210
  H         7.8697683594        3.7507696445       11.7443920406
  C         9.3389546359        5.5711174631        6.4057869005
  H         9.7610012510        1.9555904621        6.6762863747
  C         9.8220735985        3.6163172649        5.3406106957
  H        10.8582589249        4.1370005508       10.3231449418
  H        11.6950223462        3.5022977832        8.9617837587
  C        12.3675870598        2.7591741190       10.9507843082
  C         7.3495540838        6.6857078253       12.3289178154
  C         9.7654316854        4.9375846966        5.2170390323
  H         9.2041583980        6.6344092950        6.4045689572
  C        10.2832245634        3.2871447609        4.0904361976
  H        13.2608217950        3.2317354482       10.5538190599
  H        12.5493916892        1.7156511175       11.0250559377
  C        12.1618394125        3.2637038939       12.3659655797
  C         7.2695909017        8.1393367824       12.5106003579
  C         7.0871232407        5.8965981328       13.5640689539
  C        10.2379399993        5.7011538624        3.9768508247
  C        10.5273818676        4.4127920228        3.2938232314
  S        10.7700550682        1.7510394605        3.3717119224
  H        13.0698583597        3.7625003367       12.7160473345
  H        11.3648316424        4.0333331721       12.3857665523
  C        11.9847157839        2.1275366985       13.3575791420
  N         7.4171209968        9.1117082043       11.5200553775
  C         7.1995993428        8.6691614465       13.7734799291
  C         6.8456295070        6.4720795295       14.7327823459
  H         6.9035218060        4.7837900294       13.5111536844
  C        11.4718702383        6.5932147103        4.2670977289
  C         9.1325039395        6.5435400469        3.3895776065
  C        10.9960970531        4.0068816604        2.0139384227
  C        11.1474474709        2.6474788941        1.9123341261
  H        12.7734625127        1.4189334023       13.2187991438
  H        11.0040673558        1.5815147778       13.1937392597
  C        11.9953684078        2.4999461603       14.7863844330
  S         7.3822333840       10.5567645888       12.2494702012
  N         7.2509216512       10.0426410862       13.7781331139
  C         6.9828412099        7.9319883633       14.9204186328
  H         6.5686038503        5.7984120043       15.5545730776
  H        11.1440395187        7.2553638971        5.0533552910
  H        11.5283302708        7.2177809448        3.3837891512
  C        12.7258798562        5.7761205553        4.6223766896
  H         8.8178787834        7.2584891555        4.0965920114
  H         9.5842865719        7.1362396866        2.5977494078
  C         7.9696803864        5.5909229346        2.9507423499
  H        11.1747813039        4.7247107506        1.2340216539
  C        11.5097314633        1.7898898567        0.6677188410
  H        12.0534745391        3.5742349714       14.9435090892
  H        11.2140020696        1.9483121389       15.2253886101
  C        13.1679555709        1.8659806261       15.5440731938
  C         6.7474538380        8.5904699697       16.2153072484
  H        12.4414083399        5.2073068579        5.5273520727
  H        13.1541565131        5.1139010196        3.8581401348
  C        13.8410126869        6.7742283020        4.9247393008
  H         7.6518734515        4.9249147669        3.7464182692
  H         8.2821894148        4.9413579121        2.1397016969
  C         6.8292508787        6.4182432727        2.4092746234
  C        11.5589135015        0.4093482397        0.5388515207
  C        11.6717993305        2.5317286816       -0.5581869185
  H        14.0737745385        1.9302216550       15.0005726756
  H        12.8934189122        0.8290082649       15.7948711275
  C        13.1712557712        2.4513125846       16.9113205791
  H         7.0007858928        9.6473903081       16.2548573508
  C         6.4704282208        8.1046075070       17.5159113102
  H        13.5143390600        7.4459776381        5.7428675332
  H        13.8893684489        7.4301934328        4.0291146164
  C        15.2176333537        6.0991989221        5.1615181158
  H         6.6178006178        7.2253035878        3.0721742098
  H         7.0402314476        6.9366473606        1.4786766885
  C         5.5777306807        5.4785073861        2.0819258747
  N        11.2688328541       -0.4743807949        1.5592118816
  C        11.8336368723       -0.2393709871       -0.6468571081
  C        12.0178136701        1.9384250762       -1.7317981389
  H        11.5531771987        3.6079225642       -0.6231778101
  H        13.9059058511        3.2806840883       16.9652255531
  H        13.4408937911        1.5959237870       17.5680592358
  H        12.1513254397        2.8889759407       17.2201134498
  S         6.3027665411        6.4949896648       18.0373479255
  C         6.4446762561        9.1024135900       18.6297429812
  H        14.9389335952        5.1537383198        5.5939931051
  H        15.7048510562        5.9906490276        4.2058161192
  C        16.1491304981        6.7885288848        6.1690292448
  H         4.9651648624        5.3720975679        2.9680185350
  H         6.0336166392        4.5720773159        1.7264614328
  C         4.6271076354        6.0744927348        0.9660093349
  S        11.3335456498       -1.9973039093        1.0195715176
  N        11.9701156299       -1.6170390949       -0.4213631531
  C        12.2069121730        0.4486112815       -1.7814935677
  H        12.1512906315        2.4942905587       -2.6346143609
  C         6.0314926823        7.1300798037       19.6128970399
  N         6.1730939908        8.4692657468       19.7399723831
  O         6.6566220585       10.2818614850       18.5097021569
  H        16.8293960872        7.3699290657        5.5524336580
  H        15.5997160414        7.4417291532        6.9029216654
  C        17.0162349590        5.7692316427        7.0631425560
  H         5.1908617277        6.3326293664        0.1634621151
  H         4.0703722088        5.2321727276        0.5867322900
  C         3.7554212478        7.1853949866        1.4261068884
  C        12.6049649707       -0.3408725116       -2.8981278913
  S         5.5276325656        6.0865691726       21.1106078572
  C         6.1917030567        9.1364836999       21.1103507508
  H        16.5938978283        5.6486446694        7.9912751005
  H        16.9059323743        4.8408034251        6.5783400105
  C        18.4997683686        6.1392133194        7.0468474178
  H         4.0176563234        7.5149652714        2.4084835146
  H         2.8735243784        6.6424716541        1.7888260662
  C         3.5838368731        8.2938491835        0.4356749920
  H        12.3519150795       -1.3984878573       -2.7947673742
  C        13.1541226062        0.0156966712       -4.0593826966
  H         5.7053023117        8.6449206929       21.8872526454
  H         5.9084551817       10.1763427978       21.1430968951
  C         7.6628960203        9.1356317992       21.5649320898
  H        18.9693953317        5.7620012769        7.9211750804
  H        18.6630489131        7.2117995431        6.9976775215
  C        19.2006571785        5.5446124224        5.8351001286
  H         3.3542896167        8.0038175319       -0.6039185469
  H         2.7156128650        8.9543431427        0.7601799112
  C         4.7789085945        9.2903505682        0.4087097311
  S        13.6213378269        1.5672490183       -4.5772234044
  C        13.2767155473       -0.9653523652       -5.1384491838
  H         8.3857673665        9.3768883906       20.8294085838
  H         7.9367935751        8.1732048135       22.0243693882
  H         7.8435136872        9.8503224565       22.3412790055
  H        19.9558120919        6.1609980614        5.4498853787
  H        19.6185746562        4.5171238095        5.9383244528
  H        18.4319227755        5.3324944050        5.0633292832
  H         4.5052551970       10.3154318402        0.3508057404
  H         5.3167158947        9.2042550388        1.3687086429
  H         5.3512828054        9.1203944946       -0.5083522028
  C        13.8053731631        0.9254950591       -6.1727823347
  N        13.7319482078       -0.4108718037       -6.2341911789
  O        12.8325493141       -2.1433984370       -5.0470168361
  S        14.2018045107        1.7868004801       -7.6442417897
  C        13.8873814242       -1.1908708593       -7.4388165790
  H        13.8898541274       -2.2028843512       -7.2835055634
  H        14.7821619695       -0.7836055291       -7.8665508212
  C        12.6588547694       -0.9665246866       -8.3360198478
  H        11.7997994102       -0.5977099572       -7.7379144748
  H        12.3973798740       -1.9404394992       -8.8247696503
  H        12.8224341248       -0.3798600535       -9.1979833872
