352
 i =    26800, time =    13400.000, E =        98.7192411674
  H         9.8801094015        4.9465687050       31.6301777627
  C        10.5721287468        5.7189751654       31.8234660974
  H         9.8475093795        6.3782580251       32.3135002770
  C        11.2749575490        6.3741431642       30.6094339215
  C        11.7071691981        5.1756819872       32.7853992352
  C        11.6410802125        5.5075847999       29.3810984057
  H        10.5871452745        7.1408546001       30.3178688157
  H        12.2118667098        6.8319699814       30.8883935375
  H        11.2652358796        4.4983837764       33.6083328635
  H        12.5948185749        4.8060321671       32.3355682747
  H        12.0385436004        5.9739108988       33.4516741093
  C        10.4214197837        5.1241542787       28.5426243473
  H        12.2368966618        4.6566654209       29.6330571719
  H        12.4119593130        6.0138966866       28.8043545808
  C        10.7564975167        5.3129606134       27.1060575826
  H        10.1391586283        4.1088701419       28.6739018088
  H         9.5365926293        5.6605228118       28.7989280722
  C         9.7487900948        4.7840698587       26.0786945924
  H        11.6509715169        4.6664821101       26.9205821537
  H        10.9682563654        6.3740768538       26.8789748250
  C         8.5632156621        5.7249933954       25.8650956095
  H        10.2757347910        4.3527833711       25.1957035940
  H         9.2743838222        3.9510084710       26.5375180524
  C         7.3337580827        5.0581844894       25.1369160189
  H         8.2704261069        6.0443852124       26.8617389300
  H         8.8444376844        6.7184409185       25.4076233154
  C         6.8950579545        3.6878542351       25.7865918844
  C         7.7885360947        4.3402613911       23.8875589298
  C         6.1403511005        5.9725691608       24.8795164654
  C         7.2361987374        2.5744923151       25.0562866719
  C         6.3632875911        3.3465160955       27.0216050068
  C         7.8003218949        2.9505581005       23.8460405112
  C         8.2854842826        4.9253291763       22.7291505515
  H         6.4607903379        6.7419213778       24.1646896343
  H         5.9494843589        6.6947002484       25.7530137967
  C         4.9336959975        5.3978272844       24.2700544320
  S         6.8783891516        1.1057655325       25.8139750268
  C         6.3498781480        1.9806898350       27.2299013626
  H         6.0072338403        4.1429313611       27.7630202186
  C         8.3156222846        2.2527147828       22.7192771572
  H         8.0636747305        5.9398240359       22.5471113060
  C         8.7603667702        4.2818955926       21.6324369312
  H         5.0989791005        5.1189075980       23.2483974029
  H         4.4835116879        4.4850343734       24.7698401800
  C         3.6173698807        6.1968176479       24.3344518170
  C         6.0317755409        1.3316331033       28.5419764998
  C         8.7568371247        2.9033993634       21.5516056122
  H         8.3771633717        1.1516829529       22.6066097297
  C         9.1098095005        4.6767114819       20.3684269250
  H         2.8744836612        5.5613016093       23.8321274768
  H         3.5524118977        7.0649225756       23.8638708843
  C         2.9176039177        6.2907441540       25.6848890875
  C         6.1162925333       -0.0559728915       28.8664846653
  C         5.4460423957        2.1777447767       29.6485462315
  C         9.1903622464        2.2413140801       20.3026898998
  C         9.3940503711        3.5863709977       19.5305720146
  S         9.2664688913        6.1778776457       19.5198378294
  H         2.1144318644        6.9837391617       25.5097412034
  H         3.5400124649        6.7287893737       26.4829639829
  C         2.3342120738        4.9866675943       26.1996092695
  N         6.4638064574       -1.0007372080       27.9580220620
  C         5.7172561285       -0.6135529229       30.0421185002
  C         5.1242065495        1.6265002594       30.8917728805
  H         5.2749147150        3.2154978065       29.5353640654
  C         8.0906918108        1.3815615095       19.6010885775
  C        10.5315059588        1.4622790885       20.4822042815
  C         9.7666086958        3.9878591634       18.2669358415
  C         9.6870426513        5.3647644488       18.0806809597
  H         1.6477077458        4.5100959811       25.4950850701
  H         3.0436783564        4.1855253736       26.3392505819
  C         1.5599936557        5.1500700363       27.4719646155
  S         6.2839614494       -2.4494413993       28.6547445634
  N         5.7559649725       -2.0008611693       30.0808938267
  C         5.3332943700        0.1350509626       31.2153252826
  H         4.7316123105        2.3559679100       31.6269794948
  H         7.6696344460        0.7895908402       20.4160426031
  H         8.5487314856        0.7165474586       18.8757209706
  C         6.9144999462        2.1652324290       19.0586894508
  H        10.8712777571        1.0798891974       19.5671858792
  H        10.3786638423        0.6666775499       21.2466709305
  C        11.6690294570        2.3124182165       21.0827507315
  H        10.0078453716        3.2788386184       17.5078518117
  C        10.0271711765        6.1204503038       16.8323707836
  H         0.8306118214        4.3183458392       27.4868895643
  H         0.9822978112        6.0610384328       27.3920794747
  C         2.3952803623        5.1422053685       28.7221123772
  C         5.0098521867       -0.4761994713       32.4933190072
  H         7.3778167642        2.7383385761       18.1870888148
  H         6.5408902721        2.8965523408       19.7962170404
  C         5.7804008584        1.3582651239       18.5278699064
  H        11.4541398988        2.4336021650       22.1759630199
  H        11.7541891957        3.2398768801       20.6043242408
  C        12.9417661064        1.5905294736       20.7564309206
  C        10.1627924805        7.4694886014       16.6556001237
  C        10.2236029401        5.3068162443       15.5631484290
  H         2.8908743176        4.1825015499       28.7697462431
  H         3.2715183838        5.7877490365       28.5662928285
  C         1.7611758708        5.5250831559       30.0364930652
  H         4.9410721482       -1.5076514571       32.4599965921
  C         4.8642251069        0.0305960078       33.7767044069
  H         5.3526133463        0.8437266510       19.3993723183
  H         6.2337511152        0.6816778631       17.8608775936
  C         4.7318841142        2.1663100596       17.7589044560
  H        12.8986862429        0.5893895855       21.1136998528
  H        12.9894217503        1.5745082633       19.7032836254
  C        14.0623884079        2.3639716482       21.4133879460
  N         9.9530817783        8.4039282176       17.6852625441
  C        10.4117455803        8.0785574162       15.4239240330
  C        10.3949506877        5.8707858678       14.2965433231
  H        10.1017487115        4.2733391897       15.6699833389
  H         1.2928741406        4.6509110435       30.5854579496
  H         2.4389339736        5.7287636069       30.8324119332
  H         1.1173824415        6.3721117313       29.8656307775
  S         4.6896673377        1.6150294983       34.3262069141
  C         4.7841143507       -1.0305606909       34.8683238198
  H         4.3960059635        3.0226856413       18.3396090770
  H         5.0256103315        2.6782297787       16.8281627527
  C         3.5589523761        1.2197617887       17.4812836620
  H        13.7130594179        3.3442763764       21.6025260825
  H        15.0244693885        2.4779185813       20.8620335902
  C        14.4781418020        1.7291121540       22.7359037404
  S        10.0742957320        9.8968152831       17.0269743218
  N        10.4145427568        9.4638466000       15.5014768302
  C        10.6425678158        7.3278116945       14.2025179718
  H        10.5703131371        5.2621867119       13.4434834473
  C         4.4334601603        0.9404812148       35.8763251310
  N         4.4531743450       -0.4209433786       36.0098611619
  O         4.7453269798       -2.2324558571       34.7751364916
  H         2.8260301409        1.6879013317       16.7811592002
  H         2.9739743913        1.2075078331       18.4525123685
  C         3.7485390814       -0.3449937775       17.2729638087
  H        13.6159338653        1.4195457322       23.3592323912
  H        14.9700136044        0.8054635396       22.4519158864
  C        15.4353969821        2.5694734564       23.5717170198
  C        10.8957516313        8.0475822624       12.9920289878
  S         3.8782913442        1.8108134109       37.3133474126
  C         4.3136722353       -1.1222269301       37.2690307108
  H         4.3927975916       -0.4629500048       16.3656895937
  H         4.1786655101       -0.8414029728       18.1777816321
  C         2.4663855572       -1.0621490106       16.8641601845
  H        15.0081301269        2.8722306569       24.4985130187
  H        15.5841777015        3.4067455758       22.9166824824
  C        16.7709733421        1.8727165160       23.9687371483
  H        10.7050907227        9.1093674808       13.0667402802
  C        11.5795491967        7.6893484799       11.8770789459
  H         3.4797008540       -0.6575934741       37.8920157298
  H         3.9501525987       -2.1600466893       37.1946574645
  C         5.6133064759       -1.0843315304       38.0505516588
  H         2.3160567250       -0.9136645497       15.8016885622
  H         1.5244705343       -0.6774713652       17.2095951690
  C         2.4980361224       -2.5367883983       17.1187231348
  H        17.2112806374        2.4508715112       24.7622562977
  H        16.5682424374        0.9145619157       24.4226851351
  C        17.8892306175        1.8934311505       22.8958268258
  S        12.1883956150        6.1561852524       11.4781903951
  C        11.8383955331        8.7877910713       10.8792836681
  H         6.4373957961       -1.1975158217       37.3522228794
  H         5.7306573612       -0.0682993979       38.4840930538
  H         5.5779276059       -1.7052172947       38.9148902394
  H         1.6409637009       -2.9842140227       16.6903611786
  H         2.4264225844       -2.8571559590       18.1328363244
  H         3.3281763242       -3.0468366393       16.7609238031
  H        17.6933900010        1.1281787154       22.1255312317
  H        18.8224413933        1.7663243905       23.4230769768
  H        17.9538651025        2.8174429064       22.3336421143
  C        12.6060238884        6.8655881430        9.8897532032
  N        12.3762752068        8.2099343890        9.8140013301
  O        11.3279957218        9.8998719274       11.0450345314
  S        13.0689798674        5.9279204348        8.4629171399
  C        12.6365673630        9.0084439551        8.6341531979
  H        13.0102067097        9.9467726614        9.0551526558
  H        13.4543458965        8.6990000948        8.0664121027
  C        11.3870220599        9.2121856951        7.7870988524
  H        11.4485207663        8.6460574520        6.8539812845
  H        10.5018319492        8.7504846719        8.3669218035
  H        11.1423338090       10.3282190772        7.6621685746
  H         4.0585683907        0.7908357284       12.5861594744
  C         3.9435826547        1.8917760405       12.4656114268
  H         4.9939835652        2.2578425311       12.3194314670
  C         2.9976173719        2.1564443348       11.2493718045
  C         3.2909668193        2.3015728677       13.8098674713
  C         3.7538869279        2.4930667014        9.9448643691
  H         2.1293230926        2.8258174826       11.4033813492
  H         2.6153202746        1.1661162006       11.0819746585
  H         2.5457920727        1.5142663615       14.0574372683
  H         2.7805980596        3.2557830027       13.6169447879
  H         3.8426899927        2.3495468499       14.7430536979
  C         4.5266227596        1.3130397647        9.3524564888
  H         3.0264892758        2.9125471164        9.1829712654
  H         4.5041007623        3.2641951875       10.1698657333
  C         5.2455429786        1.7510775015        8.0305329476
  H         3.8553196916        0.4494170629        9.2198255476
  H         5.3102275445        1.0439296209       10.1603396244
  C         6.4988320350        2.6444818348        8.1658641537
  H         4.5244015736        2.2217811162        7.4346256799
  H         5.4657079569        0.8625165334        7.4807632405
  C         7.7195673575        1.8901098958        8.7421953273
  H         6.5665724952        2.9920707100        7.1598872832
  H         6.2090955962        3.4852252405        8.8327057541
  C         9.0708926258        2.6768319788        8.9538379786
  H         7.9161590258        0.9855557048        8.2655816034
  H         7.4049742507        1.7341889660        9.7916723987
  C         8.8478427088        4.0635743555        9.5785664035
  C         9.5838960248        3.3076077028        7.6566067286
  C        10.2323832858        1.9694198389        9.7644601011
  C         9.1631598163        5.1310370523        8.7767224295
  C         8.2432630405        4.4831117900       10.7075745574
  C         9.6330363992        4.6752829252        7.5611714290
  C        10.0122625158        2.7109172278        6.5274316399
  H         9.7302634632        1.5281229309       10.6584834446
  H        10.6262595087        1.1475521017        9.1412686839
  C        11.3960472278        2.9542317798       10.1386488813
  S         8.7117897381        6.7049687298        9.3589643408
  C         8.2153270580        5.8499242298       10.8450050236
  H         7.7742711115        3.7926975349       11.4261016865
  C        10.0985868246        5.3268089447        6.4616656020
  H        10.0828162726        1.6940383323        6.5899661634
  C        10.2515875954        3.2910039030        5.3198000593
  H        11.0162299699        3.8681453706       10.6519992507
  H        11.8564520074        3.4261164377        9.1964726800
  C        12.4707701182        2.1882739118       10.9678194968
  C         7.7168971952        6.6073065499       12.0883606021
  C        10.3285820334        4.6786641478        5.2371785923
  H        10.0475369639        6.4356751685        6.3886597455
  C        10.6520651813        2.8448691487        4.0699859297
  H        13.3415078184        2.7536740517       10.8757232788
  H        12.6721922052        1.1920449694       10.5803029918
  C        11.9708152063        2.0053163683       12.3536553598
  C         7.7467906510        7.9727275253       12.3134587495
  C         7.3073700757        5.8298254972       13.2946666447
  C        10.7420619460        5.3318317359        3.9461695836
  C        10.9333867519        3.8952365217        3.2852832579
  S        11.1086019140        1.3232437377        3.5483358608
  H        11.3917051317        2.7882827738       12.7614928424
  H        11.4846477634        1.0016639821       12.4398927113
  C        13.1428956274        1.7924521156       13.3363692531
  N         8.1187458619        8.9080215045       11.3706431024
  C         7.4973823000        8.5690462530       13.5354886907
  C         7.0997525443        6.3931506544       14.5562862721
  H         7.2709292432        4.7563303644       13.2918566722
  C        12.0007364308        6.1283808680        4.1112459761
  C         9.6490141425        6.2148183004        3.2530548089
  C        11.5458086474        3.4368942690        2.1475246930
  C        11.5481732109        2.0730019719        2.0137298332
  H        13.6482620036        2.7469301950       13.5433351245
  H        13.9102797520        1.2019454987       12.9128891654
  C        12.7870415273        1.0346416882       14.6382792313
  S         8.0129587831       10.4420358103       12.0207159285
  N         7.5092035977        9.9995709074       13.4569592615
  C         7.1134668929        7.8521784085       14.7607934323
  H         6.9923942897        5.6495434334       15.3484025097
  H        11.7233377754        7.0065890497        4.6823673299
  H        12.3089518020        6.5187434631        3.1226591858
  C        13.2076555776        5.4030746339        4.8083568394
  H         9.3638529960        7.0478563640        3.8377491987
  H         9.9211887924        6.6124430373        2.3064400256
  C         8.3855674787        5.3447899903        2.9952351347
  H        12.0124210691        4.1271391888        1.5118631454
  C        11.8740966910        1.3093803975        0.7483402465
  H        11.9927986331        0.4093396790       14.3774961185
  H        13.6079257525        0.4446683111       15.1100771103
  C        12.3828739610        2.0339905433       15.7387718951
  C         6.8890518901        8.4756865873       16.0107707413
  H        12.8757227969        4.8596300244        5.7608198626
  H        13.6591263330        4.6143936056        4.1964851550
  C        14.3418000904        6.3660690837        5.1228562278
  H         8.0662811873        4.8931642549        3.9216075826
  H         8.6207927074        4.5408801998        2.2632684901
  C         7.1973618542        6.1005738661        2.4587433814
  C        11.9735532924       -0.0723686395        0.5536318655
  C        12.2183785656        2.1651122981       -0.4675326931
  H        11.5304295319        1.6951677911       16.3830336376
  H        11.9610545218        2.9549503765       15.2358877832
  C        13.5281009011        2.4010834659       16.7089148578
  H         7.2511612507        9.4858608985       16.0274875882
  C         6.6458585662        7.9860819372       17.2351731154
  H        14.2191075608        7.0200981770        6.0266526920
  H        14.4490928125        7.0244745738        4.3116128223
  C        15.6976821606        5.6174955732        5.3617866501
  H         6.8398869870        6.8761936556        3.1731076767
  H         7.4703825127        6.6088796028        1.5252242886
  C         6.0588365866        5.0873866186        2.3345662674
  N        11.6700616171       -0.9719560922        1.5557750903
  C        12.2569592223       -0.6859191850       -0.6324445227
  C        12.5833965325        1.4989849470       -1.6529570640
  H        12.1316336849        3.2382024274       -0.4996833548
  H        14.2403847338        3.0198024818       16.2283541878
  H        13.9275397335        1.4293153593       17.0792052892
  H        13.1751816522        3.0349803643       17.5174661419
  S         6.4183136963        6.3631150680       17.6630611005
  C         6.7203231053        8.9340732647       18.3975979187
  H        15.4778514961        4.6124641564        5.8093244810
  H        16.2595022125        5.4741976264        4.4045261823
  C        16.7064011652        6.2197013673        6.3452544428
  H         5.5330400864        4.7908729428        3.1888190280
  H         6.4539091031        4.0530747921        2.0811152956
  C         5.0845153254        5.4678366921        1.2740332090
  S        11.7945062515       -2.4395703387        0.9958749312
  N        12.1843625342       -2.0715663772       -0.5624642079
  C        12.5911440640        0.0716932519       -1.8191657184
  H        12.7781120641        2.0905005935       -2.5108533824
  C         6.1515886849        6.9489439272       19.2979872900
  N         6.2822779203        8.2581195456       19.4856072333
  O         7.0676790982       10.0857792022       18.4508258121
  H        17.2674980494        7.0081864169        5.8822306252
  H        16.1309124668        6.6927899267        7.2201128443
  C        17.6920958231        5.2083080275        6.8846506515
  H         5.6514766895        5.6628912685        0.3499030570
  H         4.5295761760        4.5200558101        1.1434772329
  C         4.1001420827        6.6092090640        1.7012272465
  C        12.9083002235       -0.6792065463       -3.0259627209
  S         5.7657164993        6.0120145029       20.7640015462
  C         6.1599729632        8.9046755351       20.8028934811
  H        17.2450874269        4.4325344890        7.5498141948
  H        18.2768558354        4.7559073499        6.0313202970
  C        18.8415015787        5.8155758708        7.6631314577
  H         4.4257868283        7.0120775532        2.6476208328
  H         3.0977703859        6.2468319926        1.8066492063
  C         4.2777205627        7.6501872686        0.6678176951
  H        12.6338419468       -1.7390330189       -2.9218072343
  C        13.4837550534       -0.3009535930       -4.1884970544
  H         5.2537149233        8.5938340374       21.3327231811
  H         6.0448765386        9.9410647082       20.7503444342
  C         7.4631715594        8.6839926629       21.6241040025
  H        19.0616989593        5.3858850604        8.6004989995
  H        18.4468902384        6.7431558846        7.9701157783
  C        20.1722575264        6.0044652730        6.8613461538
  H         5.2882157172        7.9104768178        0.5011710574
  H         3.9435011264        7.3215886228       -0.3885850545
  C         3.5253132682        8.9075786322        1.1255332499
  S        14.0927489417        1.2714688651       -4.5885061169
  C        13.5108356304       -1.3011717554       -5.2779323210
  H         7.4022074555        8.0783836566       22.5114198612
  H         7.8329768200        9.6783280217       21.8904230338
  H         8.3652759530        8.3314001828       21.0508809056
  H        21.0031384897        6.3883565633        7.4965924696
  H        20.3956898387        5.1045584051        6.3503188597
  H        20.1040870036        6.7124648641        6.0018172458
  H         2.5985614384        8.8074192897        1.6377332722
  H         4.1977271108        9.6024941140        1.6502532772
  H         3.2772055649        9.5105049906        0.2607488920
  C        14.2794922991        0.5341183816       -6.2101087118
  N        14.0491241408       -0.7673485669       -6.3393719592
  O        13.0306180099       -2.4430114058       -5.2540314545
  S        15.1430722413        1.3610478119       -7.4957279884
  C        14.2444219924       -1.5308675872       -7.5520104337
  H        14.3835893008       -2.6059118381       -7.2739569587
  H        15.1818818495       -1.3149053932       -8.0506221618
  C        13.0687342376       -1.2173447955       -8.4776358601
  H        13.3519407445       -1.2914598265       -9.5286729290
  H        12.6384545804       -0.2298427747       -8.3184058799
  H        12.2943997917       -1.9457667655       -8.4449021706
