352
 i =    32300, time =    16150.000, E =        98.7733115348
  H        10.9111234852        4.8730280600       31.7733565182
  C        10.8615447700        5.8910131757       32.1890005252
  H         9.8272570948        6.1390657232       32.3192840610
  C        11.5891274295        6.6517046129       31.0945370319
  C        11.5971326515        5.7353234773       33.5479580523
  C        11.8390399963        5.8491529123       29.7276232846
  H        11.2723652697        7.6504572380       30.9348289426
  H        12.6271430442        6.7772612472       31.5390923980
  H        10.8977041805        5.7075636455       34.3262869674
  H        12.1205398959        4.7238712746       33.6752940770
  H        12.1045261204        6.6887141106       33.8755695164
  C        10.5376819601        5.4632581048       29.0082881067
  H        12.4515184088        4.9311334171       29.8361948405
  H        12.3409352585        6.3946022348       28.9129048747
  C        10.9088796626        5.3248663822       27.5324270284
  H        10.0394566632        4.5137921371       29.3682349994
  H         9.6805842747        6.1407124632       29.1504169659
  C         9.7496065541        4.6978770504       26.7356464298
  H        11.7527468484        4.6278872103       27.4368077467
  H        11.1044112664        6.1766542442       26.8746955311
  C         8.6000219148        5.6823623915       26.4310868571
  H        10.2173885952        4.2942596218       25.8319699583
  H         9.4306123958        3.8720034329       27.3113128550
  C         7.3931134017        4.9848565477       25.7002501268
  H         8.2620962359        6.1209943445       27.3884609359
  H         9.0406275292        6.4560256267       25.9281093076
  C         7.0638236085        3.7202997022       26.3510374223
  C         7.7649874015        4.2763842002       24.4633535634
  C         6.1032196752        5.8542072560       25.5623133639
  C         7.1817352956        2.5721517211       25.5844277891
  C         6.5380809539        3.3958675374       27.6508636256
  C         7.7043006671        2.9540560113       24.3202888261
  C         8.2189031595        5.0326735160       23.4007097610
  H         6.3104920097        6.8543816853       25.0092041868
  H         5.8921441066        6.1878736305       26.5708677215
  C         4.8067208147        5.1506734749       25.1249264653
  S         6.8264801043        1.1175369221       26.4285914760
  C         6.4536865553        2.0381026225       27.7798861804
  H         6.3922405812        4.1346193736       28.3815582228
  C         8.0847554526        2.3515831017       23.1383315325
  H         8.3445757629        6.1108553301       23.4507826810
  C         8.4745611218        4.4125273533       22.1841520090
  H         4.9972025991        4.8935827559       24.0732951561
  H         4.6924862334        4.2312435286       25.6870358668
  C         3.5616323435        6.0505481935       25.3115381075
  C         5.9272237345        1.2546708805       28.9401816076
  C         8.5252932633        3.0724289951       22.0381213777
  H         8.0571043253        1.2320768490       23.0406369786
  C         8.9404095087        4.8435579724       20.9083258984
  H         2.8728975524        5.8562462738       24.4815971625
  H         3.7660043431        7.0773062588       25.1228530159
  C         3.0235829360        5.9378710154       26.7152410212
  C         5.8694659406       -0.1115450206       29.1634771860
  C         5.4637919585        2.1695753118       30.0610925250
  C         8.8632739824        2.4350558226       20.7561190061
  C         9.0944434110        3.7611372408       20.0647267237
  S         9.1677220215        6.3702679423       20.1239607351
  H         2.6566012498        6.9035105123       27.0816854054
  H         3.8053504248        5.6107770382       27.4022110607
  C         1.8157257779        5.0397490771       26.8082576797
  N         6.2615899186       -1.0455102307       28.2589564922
  C         5.5606376713       -0.6364361887       30.4435087653
  C         5.1617928108        1.6088381023       31.3142896381
  H         5.2699545111        3.2311178053       29.9277345400
  C         7.7403839946        1.5501256907       20.2228305827
  C        10.1767594477        1.6034362871       21.0158860151
  C         9.3751024716        4.1872580119       18.7700708296
  C         9.5041158557        5.5635838654       18.6585802927
  H         1.1399915521        5.3163123508       25.9748416160
  H         2.1460418321        4.0465698256       26.5035962586
  C         1.0890169483        4.9814318931       28.1374139414
  S         6.1979937063       -2.4678826754       29.0041604465
  N         5.7932435351       -1.9984705532       30.5083315131
  C         5.2167910630        0.1726560200       31.5957810972
  H         4.9507853912        2.3563719169       32.0447215305
  H         7.5931336202        0.7202404974       20.9239563685
  H         8.1919548808        1.0585453635       19.3026528003
  C         6.4449176059        2.3744197854       19.9940766903
  H        10.3087897086        1.0434943659       20.1169932518
  H         9.9650562515        0.9597410751       21.8649308526
  C        11.4141558092        2.4021276229       21.4202184521
  H         9.6811590075        3.4074177739       18.0042004394
  C         9.7715562662        6.2706443393       17.3770655350
  H         0.6761318826        3.9723939803       28.1991895836
  H         0.2586437194        5.7250143272       28.1390477750
  C         2.0857056654        5.2164330185       29.3159237688
  C         5.1019515946       -0.4543157984       32.8532361642
  H         6.7281100662        3.2917186091       19.5534359130
  H         5.9000022958        2.7071884811       20.9065998442
  C         5.4201478996        1.6784986964       19.1173425883
  H        11.2458096498        3.0118073500       22.2611331596
  H        11.5727332283        3.1510231264       20.6935616664
  C        12.6278701548        1.5199849194       21.5827991339
  C         9.7983539710        7.6888683554       17.1881475392
  C         9.9707068906        5.4344973319       16.1621419955
  H         2.9263773276        4.5471731041       29.3966098431
  H         2.6859526348        6.1603283516       29.2563752818
  C         1.4076475274        5.2941811901       30.7339349153
  H         5.2778481663       -1.5052456939       32.9662134881
  C         4.7246964552        0.0542453953       34.0670668083
  H         4.9192161540        0.9060176889       19.6667180878
  H         6.0189396472        1.2611687791       18.3680989252
  C         4.4192251095        2.6230167009       18.3169172328
  H        12.2708760934        0.7928487073       22.3521065569
  H        12.7382858826        0.9246648336       20.6456983120
  C        13.9786197713        2.1379066687       21.9378296249
  N         9.7001579778        8.6240423077       18.1678951685
  C        10.0956905628        8.2921877443       15.9773465277
  C        10.2395261817        6.0410378406       14.9239899484
  H         9.7686940878        4.3693617105       16.2076987988
  H         0.9995057719        4.3319469830       31.0095793327
  H         2.1169527725        5.5023869824       31.5657120808
  H         0.4913984720        5.9284578740       30.6457443160
  S         4.3307208746        1.7255991923       34.4899121672
  C         4.5823369946       -0.8471540712       35.2478950274
  H         4.5236540086        3.6053374389       18.7703954045
  H         4.7491432465        2.7986799211       17.2817065674
  C         2.9552933606        2.1670979273       18.4058160992
  H        14.1474435499        3.1037235873       21.4398160479
  H        14.7294776617        1.5803275939       21.4500997169
  C        14.2248664953        2.1605435266       23.4428468309
  S         9.6710670361       10.1222179932       17.4791762887
  N        10.1830315640        9.6623692985       15.9800883500
  C        10.3227561380        7.5285240779       14.7889713860
  H        10.6341430758        5.3705194739       14.1564796751
  C         3.8907400902        1.1292518206       36.0749439989
  N         4.0715582475       -0.2133758189       36.2728623257
  O         4.7472641963       -2.0479356053       35.0907549385
  H         2.2143886601        2.7696363935       17.8610536535
  H         2.5841195694        2.0881293093       19.4054155038
  C         2.8024408534        0.7125731568       17.9427244059
  H        13.4715609976        2.7349420237       23.9434193982
  H        14.1283079793        1.1722839973       23.9401149301
  C        15.5546656306        2.8874842396       23.7663672001
  C        10.7262606065        8.2728333122       13.5774177760
  S         3.5360943494        2.1519503577       37.4184845039
  C         4.0735359633       -0.8216615589       37.6174792843
  H         2.2025014210        0.7993578188       17.0138339806
  H         3.7407342842        0.1997493856       17.6953636031
  C         2.0755344953       -0.2816186368       18.8604133096
  H        15.2648805274        3.7152447937       24.4263780534
  H        15.9396835423        3.3509082805       22.8661397025
  C        16.5587343994        1.9901616025       24.2954562026
  H        10.3612663405        9.3039263389       13.5501230539
  C        11.1753907820        7.8588214977       12.3543853963
  H         3.5681031613       -0.1982481131       38.3761054785
  H         3.6183802498       -1.7953134131       37.7434022547
  C         5.5864045509       -1.0346412512       38.0664779319
  H         1.2458227235        0.2246420373       19.3229001278
  H         2.7755581549       -0.6510475059       19.6944017981
  C         1.6476082136       -1.6100414662       18.0678265207
  H        16.9375475694        2.3078146991       25.2752829344
  H        16.1662734711        1.0235044589       24.3631793887
  C        17.6935763831        1.9363511282       23.2950412922
  S        11.5808968668        6.2573476786       11.8800117328
  C        11.4786718547        8.9407778286       11.3226443517
  H         5.7057869860       -1.9134705768       38.6790373916
  H         6.1952737014       -1.2433700693       37.2256093178
  H         5.8340990296       -0.1202826756       38.6198497011
  H         0.7051558082       -1.4746242499       17.5144413679
  H         1.4005401727       -2.4018653774       18.7528415141
  H         2.4786698086       -2.0530503690       17.4323417352
  H        17.4683760607        1.7103639676       22.2695837799
  H        18.5470606014        1.4001940888       23.6569120474
  H        18.0746688893        2.9256386105       23.2425651342
  C        12.0181019936        6.9464530226       10.3459214285
  N        11.9700869700        8.3057340183       10.2461535668
  O        11.3961364790       10.1493272338       11.4049463718
  S        12.7887497760        6.1295863716        8.9893694846
  C        12.3925166826        9.1101331745        9.0625698571
  H        12.2187888794       10.1351698021        9.2673869203
  H        13.3788624808        8.9859460977        8.8661237884
  C        11.5936230412        8.7593470624        7.8061878457
  H        11.0143586054        9.6134860994        7.4021612111
  H        12.3118240750        8.5616838125        7.0913688166
  H        10.8254507500        7.9885410021        7.8813509955
  H         3.3431051231        1.0308652601       13.7769948316
  C         3.9344166448        1.7758193676       13.3128648558
  H         4.8728290873        1.3593314662       13.0126272045
  C         3.1625584398        2.2744217633       12.1497230101
  C         4.4002963814        2.7331834925       14.3863638768
  C         4.0474345731        2.6573718738       11.0520748199
  H         2.5971569947        3.1941461616       12.3910655642
  H         2.3989412586        1.5416672140       11.7268801871
  H         3.6323845905        3.0885011231       15.0996568851
  H         4.6953399168        3.6449702483       13.8841459971
  H         5.1067994172        2.3136372979       15.0723066633
  C         4.6176387889        1.5107700756       10.3104866923
  H         3.6837407371        3.3651646356       10.4134268296
  H         4.9459377586        3.0660993848       11.4570038262
  C         5.0682135733        1.8107938031        8.8686614809
  H         3.7823676257        0.8854420406       10.1876969846
  H         5.4266394411        1.0329228257       10.8481961915
  C         6.4556681236        2.5398161466        8.8099043502
  H         4.2969716777        2.3566237947        8.3242857114
  H         5.1932519656        0.8523916180        8.4078893084
  C         7.7071679449        1.6678056154        9.2030846209
  H         6.6119312636        2.9577494971        7.8744975219
  H         6.2906836735        3.3806632489        9.4458882945
  C         9.0269706814        2.5130172762        9.4736116040
  H         7.8292298553        0.9491528361        8.3511752688
  H         7.5821343635        1.0362584305       10.1354014712
  C         8.6794866273        3.8427044336       10.2112814932
  C         9.5538307953        3.2312916264        8.2779829459
  C        10.2089909246        1.7880858703       10.1092839121
  C         9.1316033166        4.9776389648        9.5079875277
  C         7.9239419085        4.1648543584       11.4011546666
  C         9.6116028661        4.5896083040        8.2241601969
  C        10.0849838819        2.5330180509        7.1761027950
  H         9.8884618335        0.8845482080       10.4340736808
  H        10.9979078559        1.5162454333        9.3840567215
  C        10.9660589318        2.5987739888       11.1674947950
  S         8.5805225688        6.3975328958       10.3478478181
  C         7.7702694704        5.5057215605       11.6262748703
  H         7.5612520452        3.2852231352       11.9468904773
  C        10.0152476156        5.2098400742        7.0784475582
  H         9.9590473885        1.5068493209        7.0763569713
  C        10.5472676783        3.1591424519        6.0686821637
  H        10.4228027661        2.9361117750       12.0399659406
  H        11.3375149031        3.5193273928       10.6110644389
  C        12.2367000319        1.8790256960       11.6633792877
  C         7.3009842590        6.2684031482       12.8011656321
  C        10.4397112966        4.5025086365        5.9232115282
  H        10.1127823588        6.2537742698        7.1418568213
  C        10.8861364160        2.7959146308        4.8104912460
  H        12.9833881481        1.9114189429       10.8676560305
  H        11.9280827138        0.8878924333       12.0145875423
  C        12.8520047947        2.6347354371       12.7962163293
  C         7.3151662986        7.6288477468       12.9878240463
  C         6.8508736832        5.5259985104       13.9857975417
  C        10.7612215268        5.2256376306        4.6654100225
  C        11.0304232596        3.8936316925        3.9752447977
  S        10.9501440098        1.2857343601        3.9128892231
  H        13.3374087001        3.5543388889       12.4374706461
  H        12.1361608927        3.1709730028       13.4139749383
  C        13.6047205104        1.7768768074       13.7742595706
  N         7.7631186174        8.5175773085       12.0424087479
  C         7.0747154681        8.2664192934       14.2353876113
  C         6.5700586095        6.1377513868       15.2444548126
  H         6.8614497905        4.4093612403       13.9482223912
  C        11.9877502191        6.1605968351        4.7041996632
  C         9.5208678736        5.9981078410        4.0667093414
  C        11.3613733114        3.4858010713        2.6100080597
  C        11.3060861492        2.1106655822        2.4308575018
  H        14.3620667371        2.4641410491       14.2560775093
  H        14.2251326736        1.0538729736       13.1233503888
  C        12.7893532959        1.0526679584       14.7697816041
  S         7.6855123931        9.9376321037       12.7134819367
  N         7.1408681136        9.6590340653       14.1902078019
  C         6.6792089678        7.6123261933       15.4255975769
  H         6.2650032451        5.5344895430       16.1006113950
  H        11.8180175199        6.9665191769        5.4402604993
  H        12.0816853805        6.6964136109        3.7183240012
  C        13.3051508669        5.4442795841        5.0035107309
  H         9.2476954782        6.7881557410        4.7535107360
  H         9.7609540287        6.4679552164        3.1067398461
  C         8.3039877768        5.1500744506        3.6360191586
  H        11.4997095635        4.2177447132        1.9058749124
  C        11.6626970537        1.4804770461        1.1458464412
  H        11.8111194016        0.6950063803       14.5074465839
  H        13.3973614110        0.1959338973       15.1038278621
  C        12.4586068162        2.0012573286       15.9428114530
  C         6.6206129781        8.3297835857       16.6717778331
  H        13.1656510679        4.7260759864        5.7735016441
  H        13.6763717572        4.8391252615        4.1268213229
  C        14.4339476539        6.2937063077        5.5373129074
  H         7.7557771140        4.8195512053        4.5149440059
  H         8.6179171049        4.2783907160        3.1970028296
  C         7.4440239881        5.8423753048        2.6036991204
  C        11.7967356329        0.0566760917        0.9339316385
  C        12.1056874379        2.3142462564        0.0036401280
  H        11.7776231096        2.7674421101       15.5847250860
  H        13.2277456681        2.5916457195       16.3468203474
  C        11.7632884268        1.2181662191       17.0497838544
  H         6.8472201615        9.4184513170       16.5655471008
  C         6.3600475169        8.0278748533       18.0317515840
  H        14.0901774763        6.9486885611        6.3727853364
  H        14.7155835620        7.0074093779        4.6889322358
  C        15.5791510554        5.4164156927        6.0284691380
  H         7.9592257102        6.7214567335        2.1205360335
  H         7.1303314585        5.2156217964        1.8155037099
  C         6.1918299441        6.5430309899        3.1132538201
  N        11.4946226007       -0.8899148917        1.9641775942
  C        12.2692014076       -0.5514397022       -0.1967863606
  C        12.4576250135        1.6678370937       -1.1926200091
  H        12.1457342961        3.3504221057       -0.0013425344
  H        11.5893640154        1.9482811154       17.9733579434
  H        12.2430308304        0.3613736295       17.3164466718
  H        10.7445249689        1.0583558267       16.9074995178
  S         6.0233518052        6.5154926084       18.7362082518
  C         6.5107810988        9.0630952704       19.0265303799
  H        15.1433818740        4.8731830278        6.8725557287
  H        15.8049770908        4.7949701085        5.2254809226
  C        16.7524626223        6.2346463615        6.5320167074
  H         6.5662536430        7.2151091528        3.9624477832
  H         5.6505392341        5.7761514675        3.6136549091
  C         5.2471853677        7.2364513518        2.1482842565
  S        11.8128209717       -2.3292776824        1.4430922314
  N        12.2994005703       -1.9274826084       -0.0838717548
  C        12.5984643663        0.1794955066       -1.3654774151
  H        12.7151685839        2.2178905298       -2.0462911442
  C         5.9179473789        7.3072680807       20.2530659599
  N         5.9818719617        8.6879688873       20.1466902243
  O         6.9591353922       10.1807390512       18.8415287093
  H        17.2122507264        6.6288868562        5.6175032176
  H        16.4387174271        7.0870139571        7.1259988292
  C        17.6532004029        5.2893050766        7.2747915117
  H         5.7942375871        7.6864843052        1.3164161544
  H         4.7334626797        6.4693878171        1.6092115428
  C         4.1495044304        8.1459781976        2.7135829077
  C        12.9290822990       -0.4973005518       -2.5954738319
  S         5.6786969942        6.5454879258       21.7952577896
  C         5.9445432818        9.6322041425       21.2649832736
  H        17.2134930194        5.1392204621        8.2970296246
  H        17.7354495352        4.3108925961        6.7332357896
  C        18.9782692379        5.8887965698        7.3073043340
  H         4.3074227102        8.1842230170        3.7984216852
  H         3.1658911659        7.7228221198        2.6485389996
  C         4.2330128270        9.5310580624        2.2203320665
  H        12.7052989597       -1.5396559987       -2.5442922775
  C        13.5064420507       -0.1565986443       -3.7877865484
  H         5.3397657810        9.1369407400       22.0289021406
  H         5.4960220699       10.5894956351       21.0751889718
  C         7.4016490320        9.8549786717       21.8237581546
  H        19.4181686070        5.5610255963        8.2358013047
  H        19.0412946368        6.9902381384        7.2997337398
  C        19.8345192051        5.4424657044        6.1431657252
  H         3.5464258245       10.1787916795        2.8064362058
  H         5.2173629908        9.8247395731        2.2839574114
  C         3.7973871025        9.6293562504        0.7333979519
  S        13.9907693961        1.4126802616       -4.2428622472
  C        13.6086287397       -1.2644750593       -4.8437510741
  H         7.6001306428        9.1603799558       22.6436947409
  H         7.5040342774       10.8686899147       22.2623108526
  H         8.1227441564        9.7898609986       21.0388883277
  H        20.0115058066        4.3458485400        6.2086590918
  H        19.3122981531        5.6638158086        5.2181449640
  H        20.6927164768        5.9397450273        6.1563345790
  H         3.8893653128       10.6797062908        0.3435170988
  H         4.4055026809        9.0411669801        0.0946815747
  H         2.8133187408        9.2412707193        0.5854383959
  C        14.1778201959        0.6822555546       -5.8408992833
  N        14.1226577773       -0.6996263116       -5.9338667109
  O        13.0904323505       -2.3737022946       -4.7926778273
  S        14.6635257525        1.5774904167       -7.2935777933
  C        14.1093593993       -1.4692883915       -7.1199162845
  H        14.2597807131       -2.5477161972       -6.8522436793
  H        14.8453818052       -1.1741441921       -7.7818789342
  C        12.7225987857       -1.2720477363       -7.8594704106
  H        11.8240996238       -1.5635257363       -7.3363382930
  H        12.7177516517       -1.9024333587       -8.7548811014
  H        12.7984660214       -0.2343224415       -8.1612162753
