352
 i =     7000, time =     3500.000, E =       165.1751179400
  H        11.9271646032        5.2465644176       31.4901949683
  C        11.0898661871        5.1561506251       32.0713059826
  H        10.9509370561        4.1679591025       32.1113728129
  C         9.9602933256        5.8697894803       31.3182053247
  C        11.2543167948        5.8044165944       33.5094613041
  C         9.8885143174        5.3753657697       29.8743420827
  H         9.0767622849        5.6610598098       31.9368273698
  H         9.9541362847        6.9595353629       31.2610883252
  H        11.3619947725        6.8835809540       33.5400204297
  H        10.4786736414        5.4081361708       34.1409850287
  H        12.2386973979        5.4969595353       33.8031522239
  C        10.7386546524        6.2122182471       28.8876582116
  H         8.8391494750        5.5879742933       29.4969495146
  H        10.1474060409        4.3092898071       29.6950973461
  C        10.9989771863        5.6399272113       27.4912365519
  H        10.2911126417        7.1656779426       28.7468685251
  H        11.7511701931        6.3529116121       29.3264757878
  C         9.7690348559        4.9765191117       26.8311649406
  H        11.7954527054        4.8945039780       27.6340677171
  H        11.5530752620        6.4724768991       26.9777994198
  C         8.7256941204        5.8806030019       26.1887200461
  H        10.0503373461        4.2788537571       26.0253876171
  H         9.3273823517        4.1877580458       27.4523353029
  C         7.5920976637        5.1396052832       25.3824527765
  H         8.2404207631        6.3487128301       27.0834172585
  H         9.2011322137        6.6289722596       25.5319520487
  C         7.2684960068        3.8286490276       26.0892602884
  C         8.1212170689        4.4487884459       24.0967071510
  C         6.3299690085        6.0163022002       25.2254758681
  C         7.4657429679        2.7816059392       25.1337666790
  C         6.7456054001        3.3977732110       27.3433031781
  C         8.0643499470        3.1427802996       23.9744925967
  C         8.5898597571        5.1691204383       22.9601729358
  H         6.3676378198        6.8678461362       24.5114729689
  H         5.8638023795        6.3070787093       26.2241731092
  C         5.2962126127        5.1422130335       24.5551683709
  S         7.2328728915        1.2838104326       25.8657537526
  C         6.5668010274        2.0809780474       27.3359308599
  H         6.6037557022        4.0964952654       28.1721916670
  C         8.5213570625        2.5800080754       22.8051645524
  H         8.8341658081        6.1756649217       23.1864382719
  C         8.9772886574        4.6172611228       21.7793903037
  H         5.7485459016        4.7297598515       23.6412822981
  H         4.8951926737        4.4379366783       25.2889590930
  C         3.9966787262        5.9030464527       24.1754712785
  C         6.0117031908        1.3940969384       28.5931321204
  C         9.0770809837        3.2616918667       21.6702716970
  H         8.3359867092        1.5757586367       22.7808427470
  C         9.4804722981        5.0188599384       20.5591603359
  H         3.4164139400        5.2418614559       23.5288141598
  H         3.9942198896        6.6207185233       23.4031392831
  C         3.3054302165        6.5494910465       25.3062364405
  C         5.9959653893        0.0395915090       28.7512406339
  C         5.6526609602        2.2048811940       29.7481903008
  C         9.4517941562        2.5830407957       20.4348531190
  C         9.7442774390        3.9283689473       19.7262682452
  S         9.6306766912        6.5181007786       19.8478922942
  H         2.4879413014        7.2970635670       24.9225402479
  H         4.0250919867        7.0739409918       26.0036242231
  C         2.2841170520        5.7013703672       26.0800393081
  N         6.2085050472       -0.8935402691       27.7224096307
  C         5.7359242406       -0.5836329503       29.9395004847
  C         5.3594932922        1.5910326798       30.9768055126
  H         5.7752659287        3.3164575995       29.7510484559
  C         8.2825740898        1.8331923824       19.5816470747
  C        10.7484191822        1.7983320310       20.6702394068
  C        10.1376898014        4.4021649869       18.4239504126
  C         9.9996748563        5.6717268174       18.3452205645
  H         1.5436931279        5.5756479417       25.3222692046
  H         2.7223312045        4.6151723974       26.2628392244
  C         1.7477923050        6.1534037727       27.4095111835
  S         6.2518171607       -2.3443046512       28.4416089712
  N         5.9599598456       -1.9660483936       30.0051941693
  C         5.4068919869        0.0966447898       31.0596644358
  H         5.0955674268        2.2656692149       31.8274081874
  H         8.0758379070        0.9323076834       20.1757022351
  H         8.7093742324        1.4451710889       18.6447394743
  C         7.1225455289        2.6814364564       19.2851646316
  H        11.0422305007        1.4078401209       19.6620358583
  H        10.3817688300        0.9311181577       21.1060361992
  C        11.9642471993        2.4554265073       21.2664212008
  H        10.2027808338        3.7028053017       17.5682031482
  C        10.2630172598        6.4187725840       17.0935670738
  H         0.8310042064        6.6763077180       27.1840986422
  H         2.5776902300        6.8761579483       27.6682264788
  C         1.7391820454        5.1245815038       28.5398411433
  C         5.1994487902       -0.6055968940       32.3226824049
  H         7.2900983782        3.5207523770       18.6379556337
  H         6.8150761057        3.1663210533       20.2671208836
  C         5.9086079791        1.7866740606       18.9571617898
  H        11.6002701369        2.9913396233       22.1051857413
  H        12.2975298128        3.1483942563       20.4882593500
  C        13.2036247118        1.5656074744       21.4481821203
  C        10.2523953044        7.8448018972       16.9046237896
  C        10.6838842127        5.5881726654       15.9210117953
  H         0.9409903078        4.3536032464       28.3269300134
  H         2.5401441080        4.4055115514       28.3267426409
  C         1.6915890030        5.8072160179       29.9572586515
  H         5.4547023147       -1.5806450465       32.4784959255
  C         4.8780954909       -0.1715455070       33.5492728026
  H         5.5297613471        1.2130034798       19.8247481459
  H         6.2367504910        1.0791472404       18.1977747121
  C         4.8013566699        2.4238319186       18.1401241711
  H        13.2846820520        0.9900917108       22.3713915803
  H        13.2367882985        0.9109393511       20.5741374382
  C        14.4895774307        2.2889983007       21.5319921470
  N        10.0119935373        8.8028050499       17.9042727843
  C        10.5805296274        8.4113683277       15.6696363406
  C        10.7992234889        6.2257664150       14.6445658228
  H        11.0056137824        4.6165056487       15.9691674041
  H         1.2613785178        5.1554364404       30.6868663267
  H         2.6916869643        6.0409919396       30.2906477257
  H         1.1144115085        6.6693354015       29.9813707124
  S         4.4858648744        1.3920637654       34.0524718148
  C         4.8632596109       -1.2083304939       34.6843530566
  H         4.5536973238        3.4426185149       18.4053530017
  H         5.1602660913        2.4805506015       17.1541882154
  C         3.4513819877        1.5884818136       18.1035594706
  H        14.5052599429        3.1215379584       20.8333168725
  H        15.2352627906        1.7535158420       20.8882740970
  C        14.9548069993        2.6895072274       22.9962738340
  S         9.8181666881       10.2298637280       17.2204966802
  N        10.5351379726        9.7904775530       15.8080235212
  C        10.6369637738        7.6796028689       14.4460060245
  H        11.1375965198        5.5810378786       13.9356154252
  C         4.2949065958        0.6946632649       35.6875729541
  N         4.5070367370       -0.6108400292       35.8296829556
  O         5.1102178893       -2.4302251769       34.5466095116
  H         2.6409145514        2.2012445224       17.6304821360
  H         3.1322070390        1.4862495124       19.1686719975
  C         3.6021255316        0.2168791933       17.4378560443
  H        14.1898451489        3.2655051550       23.4814568451
  H        14.9425815728        1.9254521482       23.7365129468
  C        16.3198693471        3.3561254048       23.1284311551
  C        10.9058585882        8.3224799869       13.2654717295
  S         4.0691053323        1.6049959654       37.2137594904
  C         4.5374818949       -1.3167310777       37.0772611817
  H         2.8694989302       -0.0388320884       16.6441326861
  H         4.6092719678        0.3341675586       17.0256619947
  C         3.7009135592       -0.8940800660       18.4989545811
  H        16.1021755498        4.2468247602       23.6643502148
  H        16.5590168553        3.6691333665       22.1244263506
  C        17.3490106456        2.3766529414       23.6309403137
  H        10.6548363249        9.3754439534       13.3568348015
  C        11.4505777076        7.9748575154       12.0477624497
  H         3.8292470079       -0.9417296993       37.7280675658
  H         4.1888402218       -2.3719437956       36.9350547070
  C         5.9334565113       -1.2579154403       37.7772612632
  H         4.3456571621       -0.6172751266       19.3766995260
  H         4.1725462146       -1.6759013614       17.9275904092
  C         2.3297499971       -1.4032639863       18.9139503326
  H        17.9020067523        3.0335005618       24.3011375657
  H        16.9190012741        1.5379136839       24.1958201196
  C        18.2891095140        2.0067491378       22.5518993722
  S        12.0817948761        6.3746699332       11.5053805927
  C        11.3099729327        8.8813888535       10.9370519281
  H         6.1921141040       -0.3900753772       38.2760211151
  H         6.0755263192       -2.0809209936       38.4115223592
  H         6.6697154991       -1.5647771995       36.9452165557
  H         2.3285740260       -1.7575064467       19.9501784807
  H         2.0396397031       -2.3011392070       18.3558348105
  H         1.5445461531       -0.6684115361       18.6411617214
  H        18.7801614585        2.8065094084       21.9862071875
  H        17.8417520729        1.3589473288       21.8003542015
  H        19.1261433466        1.4815320011       23.0899719519
  C        12.1578437786        7.1039410167        9.8418390972
  N        11.8837137138        8.4041133050        9.7891321168
  O        11.0611000281       10.0899014669       11.1298070577
  S        12.8026520205        6.3032333938        8.4522915906
  C        11.9470640023        9.1186254952        8.6156674696
  H        11.9876086761       10.1806292440        8.9754331002
  H        12.8920429947        8.9785204145        8.1184316092
  C        10.6993853279        9.1845239798        7.7479884051
  H        10.6062322993       10.2431224443        7.2505742092
  H        10.6693956629        8.4553360508        6.9486745740
  H         9.7119198363        9.2411654012        8.3043808606
  H         5.1343219670        2.0476237086       12.3325467632
  C         4.2224230091        2.6215497327       12.4497600254
  H         4.3977392647        3.6830806080       12.5295877964
  C         3.1750761619        2.5097366799       11.3504129774
  C         3.5789947340        2.1804079895       13.7599872973
  C         3.9238353304        2.6583188424       10.0265138693
  H         2.5081318549        3.3546458724       11.4049968645
  H         2.6054044793        1.5244359592       11.2343976781
  H         2.6434970763        1.6741673555       13.6316852260
  H         3.2222389304        3.0596929316       14.4490683027
  H         4.3965775387        1.6176179316       14.3781970402
  C         4.5425325545        1.2982369648        9.4483417120
  H         3.1844812082        3.0141996164        9.3668393835
  H         4.6317440083        3.4466951354       10.1088231955
  C         5.2950834274        1.4417099940        8.1237691245
  H         3.7487259874        0.5855253798        9.4253651601
  H         5.0868765872        0.8462224974       10.2448361616
  C         6.4753025628        2.4674985939        8.2115236178
  H         4.6742425002        1.5565786151        7.2452184033
  H         5.6677888049        0.4454027667        7.9616844544
  C         7.6466513905        1.8377222721        8.9570302324
  H         6.7442008018        2.7693629336        7.1115988108
  H         6.2458053621        3.4121465270        8.6487213939
  C         8.8816080796        2.8252979361        9.0108229375
  H         7.9874396218        1.0382910529        8.3302775039
  H         7.2051810942        1.5780479686        9.8636825687
  C         8.5937495995        4.2156980780        9.5958576295
  C         9.3942888602        3.5221748627        7.7335679068
  C        10.0873362842        2.1152242257        9.6639040381
  C         8.8685900184        5.2925252363        8.7292165537
  C         8.2582338771        4.5720777854       10.9328472244
  C         9.3835683832        4.8769742690        7.5242887598
  C         9.7869699159        2.9034351084        6.5851022240
  H         9.6980037060        1.6701105171       10.5465302290
  H        10.3243857386        1.2797299923        8.9219791167
  C        11.3129433690        3.1569843920        9.9176001325
  S         8.5270431359        6.8277467163        9.4923627457
  C         8.1016400134        5.9433586878       11.0081800315
  H         7.9338460142        3.7270297714       11.6539331761
  C         9.7164687681        5.5024650917        6.3044386239
  H         9.9895265164        1.8330137221        6.6829445387
  C        10.1953121316        3.4880411491        5.3845644093
  H        10.8906557941        4.1397663161       10.2684543723
  H        11.7083196570        3.3809825285        8.9243395202
  C        12.3139707598        2.6715780406       10.9177653504
  C         7.6636000254        6.6952947127       12.3273966349
  C        10.1943015680        4.8314602482        5.1860920699
  H         9.5347962107        6.5719611818        6.2697853483
  C        10.6739031888        3.0322074438        4.1966117314
  H        13.2294398308        3.3342050925       10.9739890394
  H        12.6920907420        1.7075327531       10.4797146403
  C        11.7825859745        2.3168956855       12.3237853619
  C         7.6860864712        8.1110264270       12.5311866149
  C         7.3002140080        5.8781991037       13.4840310767
  C        10.6530637516        5.5106537281        3.9237970965
  C        11.0039873855        4.1321929009        3.3284214435
  S        10.9490211466        1.5261482864        3.4320594015
  H        10.9817316990        2.8691204914       12.6763324755
  H        11.5258419798        1.2279350425       12.1952400812
  C        12.9211243823        2.4399043378       13.3750775842
  N         7.9614883994        9.1076659454       11.5810124282
  C         7.5281591983        8.5976423423       13.7965330555
  C         7.0963594877        6.4364153054       14.7584613003
  H         7.2554811796        4.8060227002       13.4365755852
  C        11.9482870596        6.3223134372        4.1115378157
  C         9.6200117877        6.4190251165        3.0350669816
  C        11.4319241897        3.6082108647        2.0713756907
  C        11.5222677344        2.2978733082        1.9892459235
  H        13.3904630908        3.4270517699       13.4468924035
  H        13.7476102417        1.8252031604       13.1728763181
  C        12.4074389561        1.8985781320       14.7738945368
  S         8.1520973221       10.5606483097       12.3784738143
  N         7.7116363861       10.0041285719       13.8493651157
  C         7.2035006294        7.8855468770       14.9581989120
  H         6.7290143494        5.8037510290       15.5077110031
  H        11.5878972357        6.8918725280        4.9522419220
  H        12.0763732981        6.9304435641        3.2320866137
  C        13.2533425629        5.5271682101        4.4821700625
  H         9.3193011657        7.1940189729        3.6427553410
  H        10.3095161108        6.8712397561        2.1795998589
  C         8.3435802835        5.6968332156        2.6525588666
  H        11.6108429831        4.3242558711        1.3141533796
  C        11.8006450087        1.5378972005        0.7105287135
  H        11.7148602286        2.6245576293       15.2475183758
  H        11.8096301523        0.9411333315       14.6055496576
  C        13.4783423620        1.7752519248       15.8439655581
  C         7.0157938897        8.4926899607       16.1938949635
  H        12.9876185330        4.6407293630        5.1652691978
  H        13.7157125441        5.0091095749        3.6085914573
  C        14.3110778182        6.3334253375        5.1208459295
  H         7.9812930278        5.1491161406        3.5071309478
  H         8.6303177976        4.9293955401        1.8312056084
  C         7.2738473569        6.6722286831        2.3878620342
  C        11.8313794738        0.1489719561        0.5821802133
  C        12.2044908110        2.3287299588       -0.4951884832
  H        14.3567841037        2.3134392403       15.4926108039
  H        13.6852861132        0.7643241719       16.0682690875
  C        13.0319306012        2.2875183182       17.3199826523
  H         6.9919854511        9.5593683022       16.2799153472
  C         6.8021226898        7.9996057394       17.4823051142
  H        13.9321701288        6.6214058595        6.1128874268
  H        14.4534189071        7.2095698770        4.4790822421
  C        15.6235938037        5.4437147166        5.0738800064
  H         7.0193695305        7.1304206573        3.2501473830
  H         7.5343659173        7.5091982662        1.9042499811
  C         6.0924365739        6.0857945503        1.5990063254
  N        11.6109318203       -0.8214114929        1.6030393383
  C        12.0943505358       -0.5274951866       -0.6408629389
  C        12.3628773961        1.6886773241       -1.7059993540
  H        12.0031137994        3.3755975538       -0.4724058618
  H        12.0337128129        1.7853744771       17.6088537160
  H        12.8876371988        3.4093856961       17.2864107039
  H        13.7958686901        2.1471502146       17.9860888428
  S         6.4905378860        6.3837942458       17.9932174089
  C         6.8278686221        8.8924776221       18.7072884285
  H        15.5226716250        4.4798402406        5.5930700167
  H        15.9147565470        5.2845523833        4.0177724457
  C        16.8257514221        6.1806357350        5.6437314400
  H         5.5648488109        5.3776672173        2.1414959549
  H         6.5439665034        5.5218525878        0.7529777227
  C         5.0539357157        7.1434809530        1.1675834413
  S        11.4989633538       -2.2717971515        0.9742375072
  N        11.9635294217       -1.8923998499       -0.5320482114
  C        12.3596642853        0.1873418462       -1.8340682747
  H        12.4888636656        2.3234791602       -2.5860161935
  C         6.2500941399        6.9540168468       19.6424659085
  N         6.3935956752        8.2975867899       19.7614064669
  O         6.9295992384       10.1172589675       18.6211096528
  H        17.5170094017        6.3365429964        4.8225638734
  H        16.6406373773        7.2229884336        6.0352291371
  C        17.4612126099        5.3437986936        6.7748751249
  H         5.5328133362        8.1709534490        0.9387505530
  H         4.4952129445        6.7505568654        0.3376183770
  C         4.0926676822        7.3726811391        2.3281646875
  C        12.6717337893       -0.4871915482       -3.0248442070
  S         5.5942038439        5.9005691943       20.9186982002
  C         6.3681946356        8.9443387747       21.0191676217
  H        16.7025242721        5.5935665121        7.5188945470
  H        17.4623721845        4.2089983774        6.6548847294
  C        18.8635421575        5.7831873834        7.2566968575
  H         4.5339273152        7.4669153962        3.3028113133
  H         3.4202062612        6.4971026670        2.3240464657
  C         3.1719063769        8.6903381495        2.1289648792
  H        12.6367218207       -1.4767938873       -3.0573328865
  C        13.2253811623       -0.0549483966       -4.1745933058
  H         5.7602329508        8.4024673333       21.8234211471
  H         5.9328393505        9.9697979253       21.0563632978
  C         7.8702770954        9.1261295724       21.5728533836
  H        19.1411835768        5.2991279297        8.2614012958
  H        18.7272151706        6.9510609456        7.3385672193
  C        19.9293075654        5.4962775682        6.2349837928
  H         3.1021162663        8.8386262238        1.0570052405
  H         2.1439757484        8.6056782639        2.5228727144
  C         3.8823242715        9.9871155319        2.7180170122
  S        13.6678170004        1.4859944558       -4.7257889075
  C        13.2809943647       -1.1565782775       -5.2384344152
  H         8.3862011138        8.0939014803       21.6445287685
  H         8.0743861588        9.4096915711       22.5603379946
  H         8.4849853909        9.7673644853       20.9198838608
  H        19.7470516094        5.8667485411        5.1730094490
  H        20.9211329164        5.9063574762        6.4746828811
  H        20.0630774943        4.4177726443        6.2672039659
  H         4.2484816635        9.6973157257        3.7032621063
  H         4.7838500545       10.1804006934        2.0616119311
  H         3.2463628118       10.8390303741        2.6687927427
  C        14.0481500400        0.7655178521       -6.2492488743
  N        13.9022265741       -0.5855067229       -6.3092370225
  O        13.1108430116       -2.3648982484       -5.0361038738
  S        14.6530000107        1.6480055096       -7.5850195980
  C        14.0936950282       -1.4001673421       -7.5141459240
  H        14.0457156783       -2.4172624210       -7.3949918794
  H        15.0509411857       -1.2025252057       -7.9684680357
  C        12.9123877336       -1.0470832376       -8.5039984875
  H        12.8720259404       -0.0458624756       -8.7895368822
  H        11.9262203907       -1.3625822670       -8.1087085783
  H        13.2624456359       -1.7140149464       -9.3223562396
