352
 i =    95500, time =    47750.000, E =        99.3460066572
  H        11.5712149192        7.0537289692       32.3749734360
  C        11.5566454538        5.9945723091       32.3507689257
  H        12.6119128983        5.6497525972       32.0384705461
  C        10.6114178417        5.4694282351       31.2997537348
  C        11.3018679885        5.5255665302       33.8164059822
  C        11.1078702510        5.6433530610       29.8907086309
  H        10.3712008266        4.4123845014       31.5621373045
  H         9.6829730276        6.0728904086       31.4996107084
  H        12.0536533756        6.0682515621       34.4196597521
  H        10.3063299840        5.7826117508       34.1303327554
  H        11.3829341416        4.4384329902       33.9488371402
  C         9.9952010391        5.3811181162       28.8537263573
  H        11.9591428805        4.9535436409       29.7777344106
  H        11.5762729397        6.6137900286       29.9193438553
  C        10.3656089350        5.5966729965       27.3657548347
  H         9.6216027469        4.3901368959       29.0394022296
  H         9.2845725222        6.1836075559       29.1078853005
  C         9.3643179788        4.9403015769       26.4559671855
  H        11.3455878976        5.1739436036       27.2145179145
  H        10.4827681417        6.6263414951       27.1042927385
  C         8.0722811665        5.7320663285       26.3911013857
  H         9.7127223717        5.0219757544       25.4342955923
  H         9.0724413256        3.9930979800       26.6931415354
  C         6.8744109064        5.0238629111       25.6847802440
  H         7.7473343180        5.8694034464       27.4128767992
  H         8.2482555190        6.7139490990       25.9995464645
  C         6.5257899133        3.5979623443       26.3300669191
  C         7.2983999626        4.3066805269       24.4634543938
  C         5.6377032418        5.9227128134       25.4907029501
  C         6.6722267840        2.5667272196       25.4336737422
  C         6.0539094118        3.1691140168       27.5786319343
  C         7.1446462367        2.9798955180       24.2249653592
  C         7.8616180560        4.9685896585       23.3878289394
  H         5.9148737558        6.6853332695       24.7713661457
  H         5.5328008547        6.4343841728       26.4865968189
  C         4.3305820642        5.3311866811       25.0258747512
  S         6.3163391421        1.0852825185       26.1206846117
  C         5.9674779930        1.8470524877       27.6975138512
  H         5.8225698796        3.9741433123       28.2560460791
  C         7.4875576317        2.4492350447       23.0299312440
  H         7.8358436630        6.0270374032       23.5983641121
  C         8.2209351831        4.4358373632       22.1633146049
  H         4.6086833384        4.8456298880       24.0755641702
  H         4.0697422696        4.5017438328       25.7185950972
  C         3.0977773978        6.2245317354       25.0489744445
  C         5.7083822851        1.1721857678       29.0060851588
  C         8.0556169409        3.1369793843       21.9652882061
  H         7.2580941657        1.4121807788       22.9872513203
  C         8.6685972723        4.9418512751       20.9646388134
  H         2.2851169983        5.6848712718       24.6203944602
  H         3.2755183746        7.1778785782       24.5603958550
  C         2.6120668584        6.5723257293       26.4712031812
  C         5.8017154406       -0.1900412697       29.2529919369
  C         5.2848688460        1.9623486422       30.1564632574
  C         8.6386803995        2.5242418430       20.7277300107
  C         8.8676916330        3.8865739799       20.0979143878
  S         9.1766177378        6.4343821949       20.2984243832
  H         2.1475337111        7.5531179540       26.4586011930
  H         3.4984432078        6.6492638537       27.0627558470
  C         1.7250409596        5.4755530583       27.0309404375
  N         6.2561108782       -1.1365736753       28.3207124908
  C         5.7387157011       -0.7515027625       30.5605947331
  C         4.9967119922        1.4088944337       31.4062224738
  H         5.2415666230        3.0167786990       30.0496693832
  C         7.6562583918        1.7918061087       19.7362223190
  C         9.9315015416        1.6936667321       21.0531922421
  C         9.1968921188        4.3347385480       18.7804894343
  C         9.4456497719        5.6405939286       18.7965632524
  H         0.8083055187        5.4498609408       26.5758002481
  H         2.1854002299        4.5385960643       26.7995192114
  C         1.4430498217        5.4663734545       28.5299033480
  S         6.2744742539       -2.6340527383       29.0531985316
  N         5.8713615282       -2.1113294599       30.5705885914
  C         5.3091856515       -0.0025756975       31.6928840501
  H         4.6410620688        2.1303604878       32.1140437838
  H         7.3210144620        0.9007484953       20.3351666988
  H         8.2178477905        1.3860701244       18.8495967454
  C         6.3316379535        2.5450476616       19.4428407825
  H        10.3410730123        1.1054078931       20.2209784498
  H         9.7603396685        0.9048259092       21.7824533621
  C        11.0626357480        2.5283782727       21.6320764613
  H         9.3362021787        3.6373808437       17.9851322277
  C         9.7911284261        6.4143393744       17.6012087209
  H         0.6687596744        4.7497125491       28.8266860485
  H         1.0716798497        6.5058820395       28.7617418865
  C         2.6436627777        5.0941255714       29.4040634705
  C         5.1818355078       -0.6792679565       32.9570370782
  H         6.5665320060        3.3198735564       18.6925517825
  H         5.8248971040        2.9650023011       20.2852369690
  C         5.2800527327        1.7599287636       18.6538528643
  H        10.9377815883        2.6968141976       22.7816774771
  H        11.1848310027        3.5027232159       21.1737315303
  C        12.4177918709        1.7314345022       21.5550664204
  C        10.0259896984        7.8111809022       17.5137228768
  C        10.0170859754        5.6690178236       16.3137824015
  H         3.2165689898        4.2644242334       28.9279081430
  H         3.2794484067        5.9556731854       29.3506994354
  C         2.2120373600        4.9994097912       30.8136403347
  H         5.3287952483       -1.7681143246       32.9389723450
  C         4.7733571332       -0.2146800299       34.1765546226
  H         4.9189412509        0.8757058402       19.0698549611
  H         5.7280937925        1.5319765135       17.7226568170
  C         4.0734770996        2.6755194220       18.3579801853
  H        12.2745436938        0.9655619484       22.3561731615
  H        12.5318682821        1.3055550315       20.6107597461
  C        13.5509485848        2.6816675468       21.8434921269
  N         9.8256392249        8.7805489052       18.5419653792
  C        10.4637196869        8.4917229485       16.4086753032
  C        10.2570872616        6.3893360338       15.1470322197
  H         9.7310880014        4.6551046455       16.2181216156
  H         1.2314445566        5.5130544446       30.9285770128
  H         2.1566194120        4.0274543287       31.2592909237
  H         2.9465449490        5.4599041377       31.5247688338
  S         4.3969907988        1.4460285824       34.5600299679
  C         4.7295478934       -1.1333542353       35.3537295993
  H         3.4583248893        2.9051776756       19.2209302429
  H         4.5532317665        3.5713469057       18.0162824840
  C         3.1650420842        1.9646275982       17.3455132909
  H        13.1516450838        3.3111769396       22.5598673704
  H        13.8490213336        3.2122930598       20.9354163971
  C        14.7497112092        2.0594889766       22.4177634640
  S        10.1655712511       10.2968429792       17.9590002880
  N        10.5888430064        9.8732033337       16.5040995516
  C        10.6023575775        7.8600436204       15.2015074608
  H        10.2560712650        5.9905661183       14.1443764561
  C         4.1991928693        0.8920773940       36.2647846435
  N         4.4197070494       -0.4275981210       36.4395143164
  O         4.9115612197       -2.3425209069       35.2125039689
  H         3.6551027739        1.8339989650       16.4396233706
  H         2.4208925773        2.7295376642       16.9921169098
  C         2.3608360235        0.7834453985       17.9241726494
  H        14.5298446256        1.4983416853       23.2881456954
  H        14.9929275649        1.2874622376       21.7048397107
  C        15.8372659218        3.1109033070       22.6567879686
  C        10.9708106076        8.6818623963       14.0703116335
  S         3.6487439019        1.8124386772       37.7292525902
  C         4.4000872153       -1.1724282338       37.7071983843
  H         2.4601120126        0.7091829652       19.0238914190
  H         1.3371426511        1.0422990229       17.6886124183
  C         2.9216126934       -0.5313655569       17.3890730669
  H        15.4333657144        3.7033021947       23.4514819287
  H        15.9346250383        3.5679527785       21.6985836929
  C        17.2411507283        2.4834044313       22.8870874658
  H        10.6143808567        9.7183741642       14.1091418492
  C        11.4349946013        8.2676069587       12.8148045830
  H         3.6820865194       -0.7271171949       38.3896708474
  H         3.9969416378       -2.2123048936       37.6005926304
  C         5.7405858530       -1.2596985108       38.2512144447
  H         3.9561801200       -0.3521167569       17.3855435097
  H         2.7056124885       -0.5251943688       16.2817262733
  C         2.4380534385       -1.7982682441       18.1525973715
  H        17.4473237418        1.7692609985       22.1303604980
  H        17.9671141344        3.2474332288       22.7269206811
  C        17.3521498811        2.0308764976       24.3260912660
  S        11.9380900660        6.7108962660       12.3353427206
  C        11.4754969029        9.3039262213       11.7450890652
  H         5.8233124688       -2.1792462823       38.8388987730
  H         6.5949238000       -1.3501015989       37.5552853221
  H         5.8622047006       -0.4809078670       38.9894233731
  H         2.8619822258       -1.7292847269       19.1356876866
  H         3.0595279438       -2.5433631778       17.5984544799
  H         1.3486278561       -1.9813100842       18.2114067751
  H        18.3764728043        1.8395770164       24.5191039580
  H        16.7120459926        1.2070044444       24.5868561939
  H        17.0789330594        2.9867027347       24.8180899626
  C        12.1726213034        7.4017738859       10.7352746359
  N        11.9616051884        8.6938407653       10.6385862455
  O        11.3453532085       10.5046387387       11.9103182373
  S        13.0394169354        6.5183640242        9.4218693952
  C        12.0218795313        9.5317780349        9.4725079321
  H        12.2914963648       10.5712625700        9.7310994645
  H        12.8018183389        9.1487510672        8.7519699988
  C        10.7521600572        9.6328584174        8.7182376008
  H         9.8512570785        9.1204239873        9.1542017591
  H        10.5010844749       10.6781123886        8.5345003323
  H        10.9169712522        9.4177363219        7.6930762141
  H         3.9020634793        1.0850403830       12.7446116490
  C         3.2988392364        2.0325418858       12.8406580457
  H         4.1063742277        2.7666810561       13.1116263092
  C         2.9039139552        2.2909356800       11.4216990072
  C         2.2269291656        2.0098510965       13.8824291275
  C         4.1884624360        2.5289954505       10.5378534296
  H         2.2397053017        3.1216591074       11.5073943410
  H         2.4051279552        1.4151439747       11.0266937895
  H         2.3826990604        2.8315621567       14.5582097175
  H         2.3530359987        1.0019214986       14.2708276642
  H         1.2237697787        2.0147722184       13.3589913913
  C         4.9794007048        1.3223861210       10.1234915828
  H         3.9039776433        3.0855419296        9.6442608638
  H         4.7603651012        3.2341326577       10.9699813588
  C         5.8530433706        1.6029635613        8.8582867771
  H         4.3104977334        0.3922956253       10.1423052222
  H         5.4938010772        1.0493103653       11.0358499378
  C         6.9789707051        2.5894587325        8.9365760310
  H         5.2786140624        2.0126985407        8.0347951680
  H         6.2609700126        0.6340955792        8.5705066664
  C         8.2214815007        1.9290809700        9.3908772146
  H         7.0696486819        3.1403850363        8.0088430213
  H         6.6682769389        3.2784241878        9.7783674029
  C         9.3658159984        2.9783850916        9.6792910834
  H         8.4962572325        1.1923877445        8.6741051695
  H         8.0422262763        1.3383461503       10.3004112572
  C         8.9906080928        4.3222446445       10.3934048965
  C         9.6916177022        3.6322243903        8.4145360447
  C        10.5535044159        2.2735755980       10.3758950317
  C         9.0031154142        5.3740774023        9.4699237400
  C         8.4702426220        4.7056900201       11.6601345079
  C         9.4738965284        4.9434927498        8.2421294616
  C        10.0639857719        2.9758783967        7.2345936789
  H        10.0532020751        1.6518136575       11.1071621138
  H        10.9218168066        1.5649005662        9.6179902534
  C        11.5539361600        3.3040969827       10.9543376467
  S         8.3869427931        6.8388481548       10.1596739238
  C         8.1905869381        6.0466183667       11.6829162873
  H         8.4007402359        3.9160037978       12.4624132593
  C         9.6664750574        5.5030709947        7.0046533732
  H        10.0929187287        1.8524191712        7.2238635466
  C        10.2294335963        3.5250138840        6.0093969266
  H        11.0663353189        3.5919847939       11.8976030106
  H        11.7252723621        4.0498367813       10.2090734052
  C        12.8285387954        2.5487422904       11.2725605800
  C         7.7143866029        6.6726535775       12.9029611397
  C        10.1006050904        4.8934037980        5.7950033539
  H         9.5080380174        6.5673554180        6.8615550832
  C        10.6380985408        3.1326449970        4.7434822894
  H        13.5939562426        3.0878553440       10.6094748201
  H        12.7370912073        1.4801035687       11.0601028604
  C        13.2844055424        2.8264889448       12.7397150522
  C         7.6999353871        8.0575435378       13.0476877567
  C         7.4605268074        5.7761738824       14.0987788597
  C        10.4331688208        5.5532901344        4.4517459929
  C        10.8346769300        4.1683213251        3.8304788618
  S        11.1453074778        1.5896822435        4.1217868965
  H        14.3684629758        2.6780770248       12.6983018477
  H        13.0130502024        3.8190719317       13.1127740986
  C        12.8394248767        1.8411691404       13.7929679196
  N         8.1412058878        8.9755121476       12.1588569936
  C         7.4186773054        8.6461329363       14.2680936691
  C         7.0808645064        6.4531672950       15.2537735275
  H         7.2770886911        4.7314169824       13.8838243048
  C        11.7334162715        6.4133998683        4.5259837477
  C         9.1779678454        6.2875066249        3.9228116060
  C        11.3611691182        3.6880798901        2.6018173056
  C        11.5126227219        2.3650077415        2.5857197656
  H        13.7325556640        1.1728363002       13.8162369270
  H        11.9444372328        1.2258956438       13.4654648570
  C        12.5197456664        2.5020773720       15.1817831590
  S         8.1226948527       10.4864631165       12.7652049084
  N         7.6126284015       10.0043736135       14.2556815095
  C         7.0954551754        7.9272960265       15.4258536908
  H         6.7182958173        5.8848487340       16.1042265844
  H        11.4168309982        7.3213744576        4.9811818731
  H        11.9333094362        6.6287252691        3.5165436527
  C        12.9532363469        5.7449957099        5.2425016254
  H         8.8636661123        6.9338557210        4.6926842284
  H         9.3633549075        6.8928419024        3.0258218754
  C         7.9386169113        5.4210293790        3.5566527472
  H        11.6572405399        4.4224976651        1.8893980598
  C        11.8194241330        1.5402169944        1.3667417685
  H        12.4495087846        3.5177720775       15.1473177558
  H        11.5982305682        2.1332314352       15.6027286810
  C        13.5328691555        2.0637923329       16.1942634176
  C         6.8117536963        8.6313642203       16.6087301033
  H        12.6639478224        5.2834149384        6.1771865804
  H        13.4384322684        4.9853155957        4.6074712643
  C        14.1014550383        6.6754416971        5.5646785109
  H         7.6099940249        4.8483607793        4.3737133989
  H         8.3064844783        4.6917201950        2.9122274676
  C         6.7333387849        6.1520336881        2.9640394805
  C        11.9106149858        0.1326770144        1.2624824046
  C        12.0605717910        2.1979224616        0.0632053392
  H        14.4681174129        2.5599631239       16.0832299730
  H        13.6446108377        0.9844142266       16.1440783874
  C        13.0265147647        2.3208564247       17.5906002420
  H         6.8578980032        9.7256748922       16.4608123663
  C         6.5407528955        8.2268895844       17.9079848728
  H        13.7043536790        7.4337925472        6.2528447029
  H        14.6591335802        7.0604729031        4.6992760820
  C        15.0631146789        5.8536564223        6.4415906133
  H         6.0722207856        6.2562474270        3.8525864496
  H         7.0119782510        7.1534181314        2.5241887751
  C         5.9207695037        5.2917163630        1.9904880143
  N        11.6673678009       -0.7297752720        2.3541313776
  C        12.1955540945       -0.5684806629        0.0684045253
  C        12.2552879359        1.5038639098       -1.1442885428
  H        12.0573812895        3.2699585332        0.0715787361
  H        12.7465300185        1.3104660153       18.1245890887
  H        12.1459624414        2.9831280389       17.6585763853
  H        13.7672831708        2.7878633117       18.2271644335
  S         6.2617524936        6.6144342290       18.4508171923
  C         6.5100887961        9.2923708977       18.9370074703
  H        14.6823380928        5.6027608251        7.3561067088
  H        15.1384094041        4.9295962880        5.8065070312
  C        16.4762242121        6.4227490267        6.6964080533
  H         5.7144879237        4.3244045928        2.5624438845
  H         6.4645991045        5.0249440454        1.1193634819
  C         4.5668422852        5.9229003844        1.5924775816
  S        11.7860712143       -2.2883256524        1.8761408178
  N        12.0559803444       -1.9566851393        0.2587308914
  C        12.4594645493        0.0396519823       -1.2084083847
  H        12.3118121006        2.0536037727       -2.1216910771
  C         5.9719257796        7.3172021138       20.0136458996
  N         6.2100848632        8.7134936036       20.1028033130
  O         6.8480089084       10.4410915251       18.6861968832
  H        16.8573044719        6.9660962364        5.8117697419
  H        16.2680089666        7.1523032797        7.4425592944
  C        17.4634945430        5.4857869285        7.2229788706
  H         3.8943469146        5.1320961956        1.2126440248
  H         4.1302014587        6.3035450759        2.4976373620
  C         4.7253239802        6.9910816107        0.5563586549
  C        12.7224642936       -0.7128562621       -2.3641879673
  S         5.4566655834        6.4372804398       21.5290515623
  C         6.2075730762        9.4048565884       21.4164314547
  H        17.0674325785        4.9956608812        8.1599703221
  H        17.4872662266        4.7403298140        6.4530484523
  C        18.8370307387        6.0821279078        7.5317778857
  H         4.7154406292        6.5427668965       -0.4832205931
  H         5.6876451579        7.4268233657        0.6848377704
  C         3.6408949138        7.9303756851        0.6952772243
  H        12.3182378725       -1.6924811527       -2.2861369605
  C        13.2101268468       -0.3922278459       -3.6055661464
  H         5.9484976842        8.8732203901       22.2746569346
  H         5.5319337808       10.2410826118       21.3657903300
  C         7.5677444870       10.0299310355       21.8309886888
  H        19.2041480963        5.7754557814        8.4958831616
  H        18.7743079448        7.1262197027        7.6871868534
  C        19.9248596623        5.7456774051        6.4991119811
  H         3.3450755048        8.2922947789       -0.3033016255
  H         2.6859821840        7.5564980559        1.1002729413
  C         3.9473378823        9.1434509541        1.5974107981
  S        13.8269633656        1.1277854089       -4.0224981559
  C        13.2311878790       -1.4227363432       -4.6358916370
  H         8.0281083553       10.5232620648       21.0388821830
  H         8.2248960528        9.1592832995       22.1221904991
  H         7.3175216555       10.5434420035       22.7450226989
  H        19.6697395857        6.1631961989        5.5401970917
  H        20.8651820462        6.1371066622        6.8249045647
  H        19.8497696590        4.6702608131        6.3717470936
  H         4.9196274543        9.6376435752        1.4787688164
  H         3.1503025703        9.9251015322        1.7329543495
  H         3.9940394110        8.7763245976        2.6120661525
  C        14.1610084112        0.3806520939       -5.6502031394
  N        13.8457825256       -0.9298086659       -5.7547883022
  O        12.9485269328       -2.5653903144       -4.4503293124
  S        14.7574908789        1.2755049325       -7.0825216623
  C        14.2074378295       -1.7868232514       -6.8939689103
  H        14.4432617508       -2.8250512320       -6.6298538728
  H        15.1377221215       -1.4500914193       -7.3691744433
  C        13.1838475645       -1.7710408355       -7.9409198381
  H        13.4426917296       -0.9782710322       -8.6014222112
  H        12.2365826981       -1.4632884236       -7.5289786415
  H        13.1684626980       -2.6810388478       -8.4240601280
