352
 i =    85200, time =    42600.000, E =        97.5573689346
  H        12.2695643762        6.6330365159       32.9375739952
  C        11.9693575003        5.6285090762       32.9103960683
  H        12.8727620700        5.0731784363       32.7941267737
  C        11.0858099098        5.4079531101       31.6930834555
  C        11.2299695944        5.3077375225       34.2361311149
  C        11.8272459866        5.5040992723       30.3328237507
  H        10.5448054313        4.4115458217       31.6004462614
  H        10.1810837702        6.0381180285       31.7325937658
  H        10.1804678845        5.6682611401       34.0078926626
  H        11.2608441964        4.2745555401       34.4959690705
  H        11.5719700703        5.9151016311       35.0677806600
  C        10.8170806434        5.5707860824       29.1820513161
  H        12.6515325213        4.7717035336       30.1413867502
  H        12.2127280660        6.5156649849       30.3883789815
  C        11.3415922583        5.3978409403       27.7939690040
  H        10.0138006686        4.8487101889       29.2034133711
  H        10.3412245871        6.5923417547       29.1872186140
  C        10.2156709150        4.9089449863       26.8805188664
  H        12.1172318430        4.6995318891       27.7682435432
  H        11.6525531478        6.2860963201       27.4058573031
  C         8.9769262321        5.7731492284       26.6744052492
  H        10.6324976327        4.5728938831       25.9686414213
  H         9.8743104412        3.9502213465       27.2117397906
  C         7.6527903394        5.1285761108       26.0124537226
  H         8.6679548174        6.2106088187       27.5856497003
  H         9.1557577094        6.6273298527       25.9509373745
  C         7.3307363234        3.7688121789       26.6811724179
  C         8.0181746554        4.4550565655       24.6906406708
  C         6.4627159586        6.1032409703       25.8724737286
  C         7.5680648597        2.6699241439       25.8843290079
  C         6.7376199148        3.4645168452       27.8828811631
  C         7.9683068195        3.0990428741       24.6239589851
  C         8.4934117097        5.0415787127       23.5342038872
  H         6.8323457880        6.9196009449       25.1944945970
  H         6.3562485928        6.4902141749       26.9419195747
  C         5.2199879409        5.4836810680       25.2327375994
  S         7.1562961486        1.1142819605       26.5991981471
  C         6.5935075327        2.0875176510       27.9615259179
  H         6.5632075300        4.2657382637       28.5991518645
  C         8.3812178291        2.4842859761       23.4726998956
  H         8.4969971840        6.1410355520       23.5357547012
  C         8.8776188931        4.3967599900       22.3879166231
  H         5.4837238249        5.2027791701       24.1622343707
  H         4.8994550205        4.5489824860       25.6451002801
  C         4.0415640413        6.4741895411       25.3024128861
  C         6.1605508643        1.3808757307       29.2183620302
  C         8.8127311798        3.0676078356       22.2999877330
  H         8.2696183172        1.4019699010       23.4914008130
  C         9.1729956789        4.7622527856       21.0993814558
  H         3.2789128673        6.1625312446       24.6004045782
  H         4.2471773345        7.4924994415       25.0092513579
  C         3.3356580865        6.6454010513       26.6585500611
  C         6.1430072706       -0.0029348000       29.4750385584
  C         5.8687418110        2.1270118471       30.4473302932
  C         9.0764741521        2.3196494363       21.0183180802
  C         9.2199802096        3.6501543032       20.2270705975
  S         9.4735579216        6.2215545993       20.2611515629
  H         2.3788396838        7.1020151969       26.4966233322
  H         3.9254413325        7.2729695001       27.4084457349
  C         3.1518931028        5.2972169589       27.3590935806
  N         6.4051947566       -1.0161424187       28.5123064135
  C         5.7419466388       -0.6247726013       30.7071610028
  C         5.5819649351        1.5514297097       31.6997111150
  H         6.1293519351        3.1843421202       30.4949523575
  C         8.0927168433        1.3273028106       20.5135461379
  C        10.4077881861        1.6332400987       21.0423769580
  C         9.6704034666        4.0013013542       18.9568981874
  C         9.8053856758        5.3865350885       18.8249551427
  H         2.8335120151        4.5609197858       26.7182774777
  H         4.0736442214        5.0040485327       27.8995985574
  C         2.0192978852        5.3848382746       28.4227356450
  S         6.3255545182       -2.4201934682       29.2640533628
  N         5.7931314363       -1.9521446351       30.7215164677
  C         5.4560146443        0.1323985698       31.9307673012
  H         5.3793448389        2.1984724492       32.5151556150
  H         7.9183074317        0.5486309952       21.2195015592
  H         8.4234540052        0.7387484355       19.6627254875
  C         6.6983366074        2.0628623457       20.1512689219
  H        10.5207862328        1.1800725116       20.0276343476
  H        10.2838399144        0.8338509386       21.7927692444
  C        11.6249605394        2.5057420891       21.4022272437
  H         9.7172986507        3.2233287680       18.2476069706
  C        10.0809153115        6.1266581401       17.5226111803
  H         1.3377075681        4.5853273438       28.4371290160
  H         1.3736066316        6.2314761605       28.1662435494
  C         2.5809110620        5.6185549750       29.8909938312
  C         5.2221711303       -0.5507044527       33.1304422402
  H         6.5707583275        3.0069684974       20.6327191572
  H         5.9254307440        1.4186328513       20.5169886198
  C         6.5074423121        2.2709595112       18.6099422972
  H        11.4945582592        3.0088420882       22.3811249552
  H        11.6758236436        3.4337740197       20.7272561758
  C        12.8406855165        1.6242778251       21.2548276839
  C        10.1837415116        7.5446784494       17.3497637042
  C        10.3546857864        5.3471042083       16.2663328470
  H         3.5350642595        5.2132964108       30.0965432449
  H         2.8074546752        6.6006354802       29.9736019347
  C         1.5534712752        5.3911053386       31.0413368506
  H         5.0625121690       -1.5840581267       32.9524811016
  C         4.8841007991       -0.0862748384       34.3558892800
  H         6.7078299998        1.3761354221       18.0159067161
  H         7.1989884646        3.1048605231       18.3246691818
  C         5.0888181130        2.4146065497       18.0605088405
  H        12.9208468712        0.9376782367       22.0280318450
  H        12.7825507406        1.0685224319       20.2683959950
  C        14.1158129592        2.3494028059       21.0547964372
  N        10.1313895076        8.4827574000       18.3787234405
  C        10.4160616655        8.1382057329       16.1101467229
  C        10.6466912714        5.9780968961       15.0139759290
  H        10.2427277754        4.2703611802       16.1661103397
  H         0.9837074912        4.4394194952       30.9175756109
  H         2.1219685075        5.5223543227       32.0026217651
  H         0.8935426869        6.2650983095       31.1537375272
  S         4.6471732688        1.4990151996       34.9456322662
  C         4.7317771932       -1.1652744332       35.3744121463
  H         4.4738455409        2.9888608907       18.7870393527
  H         5.0164502923        2.9114606066       17.1205010660
  C         4.4014002929        1.0492625376       17.9147150061
  H        13.9565678981        3.4141465293       20.9125138482
  H        14.4973389367        2.1212530336       20.0507847645
  C        15.0606548902        2.1115802699       22.1879092499
  S        10.0194429642        9.9140785746       17.7038398981
  N        10.5138494563        9.5198230718       16.1789179332
  C        10.7202569852        7.4308553108       14.9077647605
  H        10.8739117383        5.3084433082       14.2652918884
  C         4.3163765038        0.7683534632       36.5119308082
  N         4.4348979492       -0.5759238290       36.5561268237
  O         4.8845715766       -2.4051550190       35.1583466044
  H         4.7116205692        0.4236497896       18.7955390613
  H         4.7709646053        0.4391897306       17.0812736596
  C         2.9325418941        1.1632324654       17.9905184137
  H        14.6432815858        2.4750419707       23.0790761629
  H        15.2945733244        1.0089109773       22.2841822930
  C        16.4148148424        2.7666412247       21.9548207268
  C        11.1003410134        8.1123730969       13.6930870830
  S         3.8555432679        1.7201072137       37.8976207251
  C         4.3575287635       -1.3170102152       37.8680683162
  H         2.5412585601        1.9716220258       18.6217336698
  H         2.6335251831        1.4576500853       17.0214725606
  C         2.2211562854       -0.1880332171       18.3741733601
  H        16.3919432098        3.8373671497       21.8395897046
  H        16.7508082812        2.3442587159       21.0289953420
  C        17.4557293672        2.3851535543       23.0683848492
  H        11.1282246488        9.1895850999       13.7888046404
  C        11.3875068501        7.6417154130       12.4222135700
  H         3.6343055883       -0.9098944512       38.5361885464
  H         4.1064786859       -2.3042071738       37.6843283026
  C         5.7893179829       -1.4520252346       38.4057076906
  H         1.1881356068       -0.1088188409       18.5403374374
  H         2.8174862359       -0.6602149952       19.1631094828
  C         2.1695270756       -1.2459904905       17.2903068606
  H        17.9699860871        1.4894060533       22.7497604034
  H        18.2200903436        3.1727952639       23.0699585664
  C        16.8481528428        2.1744282539       24.4690757886
  S        11.7139601883        6.0073871160       11.9319716260
  C        11.4785503702        8.6228633144       11.3284300751
  H         6.5378102445       -1.2566142245       37.7139984692
  H         5.9449545754       -0.7692411987       39.2343063051
  H         5.9539278047       -2.4839287099       38.7194099589
  H         3.0117787296       -1.9571929888       17.2976881681
  H         2.0407741078       -0.8489326176       16.2132919234
  H         1.2376218926       -1.8114460314       17.4963214677
  H        16.0330122448        2.9453293694       24.6492308566
  H        17.5745816416        2.1986844256       25.3065137604
  H        16.4331503302        1.1695735819       24.6274505088
  C        11.9405471389        6.6609942877       10.2643265079
  N        11.9486174007        8.0227713999       10.2193343737
  O        11.1636334022        9.8172456114       11.5205044291
  S        12.5509660645        5.8056345776        8.8707491556
  C        12.0874876629        8.9230658720        9.0329536019
  H        12.3116624941       10.0322409352        9.1810052086
  H        12.9245690258        8.4822112284        8.3846954776
  C        10.7461972667        8.9583713932        8.4117924040
  H        10.1748870634        9.6096624228        8.9602332703
  H        10.8116210408        9.2995100620        7.3611668306
  H        10.3081379525        7.9851436662        8.4052094675
  H         4.6222368751        1.3805894840       12.7089154176
  C         3.8538641877        2.1195174546       12.9546439096
  H         4.4129886765        2.9481371504       13.3193795898
  C         3.0180081059        2.4426037438       11.6879685780
  C         2.9578394054        1.7585402096       14.1148661282
  C         3.9212305154        2.4717860159       10.4413239551
  H         2.5222753087        3.4411124790       11.7356291973
  H         2.2340969169        1.6635212596       11.5709713142
  H         2.3188228927        1.0209589628       13.7098644837
  H         2.4868096304        2.6770501385       14.4325465573
  H         3.4065151096        1.2047237908       14.9171836782
  C         4.3280738575        1.0782176498        9.8469768467
  H         3.4120265854        3.0968508028        9.6741542515
  H         4.8595406570        2.9303643632       10.7327451440
  C         5.0887298469        1.3564918848        8.5235698771
  H         3.3735451382        0.6453940251        9.5710057306
  H         4.8507239024        0.3665698523       10.4775904800
  C         6.3889838006        2.2286912155        8.5337865331
  H         4.4701716276        1.8012459374        7.7395470494
  H         5.1129812156        0.4348856231        7.9448904841
  C         7.5182361647        1.5768287377        9.2993448079
  H         6.7302083449        2.2024950769        7.4672800521
  H         6.2074353231        3.3089191202        8.7535258259
  C         8.7681084727        2.4335995443        9.4996909616
  H         7.8089941043        0.7169396987        8.7617117152
  H         7.1632174528        1.1678767124       10.2340238009
  C         8.3775375214        3.7977250949       10.1110383108
  C         9.2524020518        3.1414200261        8.2246515697
  C         9.8742223399        1.7059793512       10.2922670197
  C         8.6512392400        4.8561722523        9.3345677475
  C         7.6741250322        4.1993525776       11.2286833705
  C         9.1207679253        4.4912496829        8.0778244093
  C         9.8204222546        2.5306235238        7.0636327368
  H         9.4765157094        1.2634786527       11.2281345217
  H        10.2947318615        0.9699795258        9.6704325720
  C        11.0744788371        2.6447971394       10.6977157500
  S         8.2245517955        6.3665736183       10.0256527463
  C         7.6655405077        5.5381471065       11.4106882074
  H         7.2433099825        3.4024963849       11.7662597453
  C         9.4729125771        5.1534347087        6.9309706752
  H         9.7980417173        1.4815676768        7.1756694027
  C        10.1756835492        3.1734421870        5.9080871544
  H        10.6593909224        3.4545444056       11.2790776785
  H        11.5142305739        3.1217524423        9.8064711121
  C        12.3443738142        1.9516788366       11.2703324304
  C         7.3232818493        6.2150830431       12.7465403555
  C         9.9890094855        4.5269328957        5.7761389322
  H         9.2773544040        6.2032549769        6.7696059159
  C        10.5978881845        2.7561130037        4.6427098653
  H        13.0789734241        2.7087392248       11.3144994560
  H        12.7846582747        1.2755289958       10.5558013752
  C        12.0838887413        1.3168911995       12.6707188474
  C         7.5144564321        7.6410986791       12.9751000925
  C         7.0575345356        5.3714714320       13.8996173353
  C        10.3460316545        5.2107042051        4.4933686695
  C        10.6815862720        3.8488530170        3.8197970308
  S        10.9049196657        1.2796494433        3.8585140446
  H        11.4023902647        0.5245088734       12.7079795387
  H        13.0055890312        0.9667533399       13.0562832371
  C        11.6651244229        2.3161308848       13.7080983945
  N         7.9227918431        8.5806324365       12.0084657665
  C         7.3494273280        8.1824845220       14.2157380117
  C         6.9199496655        5.9003678574       15.1565513861
  H         6.9256238394        4.3263150281       13.7309841689
  C        11.5987517378        6.1337093009        4.8308487941
  C         9.1473231680        5.9425606407        3.8738756667
  C        11.1429120185        3.4972215821        2.5290162550
  C        11.3463253401        2.1348403694        2.4277312402
  H        10.6324819372        2.6545782033       13.4878021296
  H        12.3369727308        3.1294046278       13.6938811568
  C        11.5193470660        1.8052486687       15.1361516514
  S         8.1593417759        9.9832008984       12.7820659701
  N         7.7366786760        9.5001749202       14.2624035018
  C         7.0298335159        7.3992697815       15.3545370471
  H         6.4425625780        5.3496460910       15.9415638984
  H        11.4175138104        6.7094188110        5.6914686773
  H        11.7920828911        6.7738840188        4.0243914403
  C        12.8908141154        5.3413414479        5.0959854668
  H         8.6821110567        6.4043372148        4.7482448406
  H         9.5904758642        6.7363730313        3.1271072916
  C         8.0927118164        5.2528895759        3.1005680450
  H        11.1645539773        4.2267846043        1.7983333198
  C        11.7308000956        1.4417035944        1.1211284275
  H        10.5674821427        2.0123577596       15.5537091446
  H        11.6041775554        0.7192939189       15.0772345288
  C        12.5886039116        2.3225670742       16.1530991553
  C         6.8197036170        8.0880701880       16.6112170348
  H        12.7281899833        4.7183998949        5.9659554944
  H        13.1446077138        4.6306483175        4.2887743063
  C        14.1810492999        6.1538613043        5.3087652799
  H         7.6605192678        4.5680793491        3.7491208632
  H         8.4341200026        4.7190855137        2.2223816790
  C         7.0347052835        6.2130657805        2.5617471306
  C        11.8102660700        0.0029386226        0.9444478445
  C        12.1388435210        2.1914420084       -0.1191705670
  H        12.5281835835        3.4397187480       16.2919173672
  H        13.5975890506        2.1200275244       15.8335817938
  C        12.4389303566        1.7338471796       17.6217146756
  H         6.9407411959        9.1662921902       16.4779645058
  C         6.6072799891        7.6409766596       17.8680787670
  H        13.9944052391        7.1366942238        5.6807836161
  H        14.6974626516        6.2955345171        4.3881878800
  C        15.1184212904        5.4751343221        6.2693667082
  H         6.6294714499        6.8416272184        3.3947902325
  H         7.5366285610        6.9470459118        1.9150087991
  C         5.9129178619        5.5693581788        1.7410038939
  N        11.4733421365       -0.9423073903        1.9455946887
  C        12.1650833414       -0.5421378583       -0.2905106841
  C        12.4061869113        1.5796737563       -1.3810514744
  H        12.0908962822        3.2529726285        0.0442501644
  H        11.3867311430        2.0473669892       17.8398367280
  H        13.1563212591        2.1187327023       18.3120261669
  H        12.4947510380        0.6723970121       17.5701292413
  S         6.3001073673        5.9513287387       18.4326175263
  C         6.6400997893        8.6608669314       18.8550149137
  H        15.0817353825        5.7210991998        7.2868270011
  H        14.8990948455        4.3850269647        6.4257036811
  C        16.6139543837        5.5368486564        6.0225319315
  H         6.1054284485        4.4976607114        1.7018429192
  H         6.0772992697        5.8690093557        0.6529878206
  C         4.4697148388        5.9043366383        1.9850171774
  S        11.7546882523       -2.3800817232        1.3027110466
  N        12.1268717417       -1.9381599744       -0.2371671166
  C        12.4627624479        0.1003969102       -1.5057502386
  H        12.7374787413        2.2662931053       -2.2352820276
  C         6.1120785951        6.7144240432       20.0205737209
  N         6.2673052053        8.0742468910       20.0289396140
  O         6.9672171464        9.7827945640       18.6868275296
  H        16.8497225640        4.9701032557        5.0667676154
  H        16.9879008952        6.5520298419        5.8407171177
  C        17.3982391842        4.8080400910        7.0922351940
  H         3.9601424877        5.5525371293        1.0390842506
  H         4.1764450049        5.3039228481        2.7831881147
  C         4.0779211324        7.4573469740        2.1062980590
  C        12.7731486597       -0.6704121121       -2.7088032825
  S         5.9014232290        5.8481800400       21.5551723545
  C         6.3238830241        8.8263761875       21.2841962327
  H        16.8303567248        4.6213271728        7.9796473102
  H        17.6224089726        3.8330358570        6.7858530386
  C        18.6380961140        5.5175682394        7.3553821937
  H         4.5027950239        7.8317276884        3.0503854060
  H         3.0130226892        7.4848730113        2.2905796098
  C         4.4686299027        8.3879875978        0.9122985286
  H        12.4003656052       -1.6657117211       -2.6670474214
  C        13.2365180972       -0.3312926517       -3.9818722101
  H         5.5323576353        8.6629614498       22.0092190004
  H         6.0623523648        9.8695684356       21.0681144228
  C         7.7896900511        9.0006557465       21.7941259916
  H        19.1678554986        5.0580892265        8.1210644125
  H        18.4814714921        6.5265867944        7.7246166276
  C        19.6044489238        5.5962419087        6.1481257158
  H         5.2991107727        8.9867400702        1.3198893119
  H         4.8222790352        7.8979284057       -0.0266241224
  C         3.3720876747        9.4126504819        0.7616685002
  S        13.7568178017        1.2750123361       -4.4098266801
  C        13.2304283268       -1.2556353838       -5.1741455542
  H         7.9332150512        8.6299092098       22.7456961176
  H         8.0973529335       10.0265644890       22.0522910962
  H         8.5991906927        8.4511191965       21.2684766453
  H        19.6142476440        4.6612033449        5.5260060568
  H        19.3041865810        6.4321890120        5.5172287989
  H        20.6199214502        5.8117071033        6.5155707432
  H         2.8766963005        9.6690239744        1.7219794282
  H         3.8883617030       10.2646461849        0.4130960575
  H         2.6211086876        9.1804613080        0.0144327495
  C        14.2151447813        0.5545937016       -5.9710143983
  N        13.8813958185       -0.7104949320       -6.2694869137
  O        12.8167190093       -2.4186765190       -5.0752088749
  S        14.9157175977        1.4772221971       -7.2797896014
  C        13.9676483262       -1.4509519089       -7.4873041181
  H        14.2976070381       -2.3794510814       -7.1231826338
  H        14.7824584448       -1.1593856938       -8.0575575756
  C        12.7385443239       -1.2844225263       -8.4110070130
  H        11.9181882200       -1.0857969293       -7.7641274999
  H        12.6085999176       -2.2636909994       -8.9094140558
  H        13.0609260507       -0.5049596662       -9.1045043986
