352
 i =     7800, time =     3900.000, E =       158.6933963569
  H        12.5521819917        5.4642538627       32.2317779766
  C        11.3803863763        5.4809058217       32.2489703794
  H        11.0273517426        4.4034116457       32.3997379674
  C        10.9035288485        6.1510712523       30.9733747568
  C        10.8840154027        6.3306383171       33.4388580372
  C        11.0710147333        5.2387465794       29.6998922703
  H         9.8795729212        6.5139263823       31.0290617593
  H        11.4678172465        7.0379242526       30.8932633924
  H        11.1866595448        7.3597332809       33.3186518994
  H         9.7558748817        6.2572382798       33.4015989224
  H        11.3869626996        6.0060076140       34.3200719101
  C        10.3934570292        6.0216483791       28.4610629848
  H        10.5782805098        4.3223815673       30.0827929978
  H        12.0603269889        4.9160634770       29.6127666008
  C        10.7981171399        5.5215990233       27.0543718245
  H         9.3269220795        6.0271131794       28.4718083393
  H        10.6420922260        7.1281941787       28.6786511115
  C         9.5865254380        4.7991232762       26.4303745670
  H        11.6382521481        4.9779009537       27.2143025882
  H        11.0593127892        6.3513502580       26.3689807056
  C         8.3640563368        5.6459415219       25.9972351155
  H        10.0504294622        4.3245986514       25.6154691117
  H         9.2891689271        4.0390119724       27.1480641266
  C         7.3043205884        4.9272678234       25.2097465431
  H         7.8874586458        6.0563624819       26.9054500740
  H         8.7068651562        6.4393369598       25.3693113276
  C         6.8109700469        3.6600752597       25.8268881945
  C         7.8427870935        4.2739132861       24.0233930038
  C         6.1309126155        5.8633367760       24.9004316809
  C         7.1639719818        2.5293155237       25.1392421921
  C         6.1982170784        3.2549595772       27.0659586942
  C         7.8816942234        2.9152683063       24.0001728650
  C         8.3986764520        4.8493675139       22.9467330192
  H         6.5930161109        6.6395519305       24.3143797937
  H         5.8118003574        6.2965787739       25.8354321473
  C         4.8893337881        5.2638000347       24.2186921849
  S         6.7973506320        1.0213948722       25.8798278258
  C         6.2229598088        1.8675641093       27.2750252440
  H         5.7914863405        4.0029796788       27.7449236684
  C         8.2802335651        2.3210053835       22.8198937800
  H         8.6325935231        5.9229807641       23.1631776630
  C         8.7511693124        4.1793205995       21.7745126748
  H         5.0760874450        4.6231623577       23.3687140829
  H         4.6952510263        4.5674395064       25.0215666560
  C         3.6916174901        6.0911935381       23.9871351820
  C         5.8120422319        1.2145914118       28.5560407058
  C         8.7195107577        2.8257892541       21.6266750752
  H         8.0356619028        1.2778753080       22.5705749605
  C         9.1232374276        4.6451213328       20.4854957503
  H         2.9286186172        5.6264409291       23.2362996802
  H         4.0749121612        6.8758951415       23.3820230961
  C         2.8998233878        6.5008971642       25.1605224152
  C         5.7972949346       -0.2100165331       28.8498880560
  C         5.3211649720        2.0415546831       29.7112897006
  C         9.1279828972        2.1405871486       20.3018455389
  C         9.4430199644        3.5341680905       19.6622130651
  S         9.1417104440        6.1532273034       19.6440170423
  H         2.2977585537        7.3315079758       25.0583265631
  H         3.7012844709        6.9214073907       25.8682018486
  C         2.0711150513        5.4015527715       25.9480639791
  N         6.2238995121       -1.1490396133       27.8641161961
  C         5.6714568554       -0.7343902671       30.1256924528
  C         5.1158458009        1.4953775299       30.9671598436
  H         5.1919947817        3.1406131356       29.6641643285
  C         7.9434556858        1.3455536716       19.6986587773
  C        10.3490820978        1.2715068768       20.4734660191
  C         9.7659729747        4.0112491238       18.3707688665
  C         9.6345213421        5.3466980651       18.1437970819
  H         1.4277611743        5.1134532142       25.1622613368
  H         2.4825550323        4.4732252508       26.4458098909
  C         1.5189899562        6.1261881880       27.1394095773
  S         6.0614531557       -2.6923168968       28.5649036355
  N         5.7973652412       -2.1753222535       30.0395866249
  C         5.3077057405        0.0387028932       31.2825660365
  H         4.8269614508        2.2518177585       31.6309794798
  H         7.5371799019        0.5202790398       20.3438269876
  H         8.4631254628        0.8415436064       18.9343864225
  C         6.8603070613        2.1236228718       18.8938534693
  H        10.5989348679        1.0944334121       19.3708843744
  H        10.2163378226        0.2817658402       20.8409228311
  C        11.5585431565        2.1303738188       21.0654705097
  H        10.0975933314        3.2871478191       17.6017088099
  C         9.8427871083        6.1071640331       16.9028996456
  H         0.5868779108        6.5803658288       26.9381926625
  H         2.0828404136        7.0248490558       27.4740855446
  C         1.4015955113        5.0206358744       28.3220052244
  C         5.0464399975       -0.5143522307       32.5559319926
  H         7.3563927390        2.4957036752       18.0115203072
  H         6.4263976348        3.0016968113       19.5026488982
  C         5.6718646228        1.2209813581       18.5511950891
  H        11.1407978641        2.6616956682       21.9566180885
  H        12.0097013879        2.8676362141       20.3635855277
  C        12.7931325410        1.2200706604       21.4475176554
  C         9.9344598300        7.4861792239       16.8098916382
  C        10.0669005258        5.3464234851       15.6034752984
  H         0.7152705660        4.1367232571       28.1357538627
  H         2.4025074854        4.7153324336       28.4645787581
  C         1.1007358229        5.7420025806       29.6629276949
  H         4.8484275038       -1.5215564186       32.4517309558
  C         4.7288644539       -0.0102232764       33.7898612637
  H         5.3682923472        0.5793379028       19.3566642963
  H         5.7255865829        0.4835645877       17.7161193155
  C         4.4815078073        2.0453620062       18.1454270648
  H        12.4900813183        0.5948055901       22.2385706933
  H        13.0816706515        0.5232163754       20.6438369237
  C        14.0593069107        2.0238967346       21.6439827095
  N         9.7602849038        8.3924056435       17.8080753789
  C        10.3809239794        8.0843117312       15.6644326914
  C        10.4527789470        5.9802536200       14.3819354924
  H         9.8915990040        4.2805482696       15.5495443932
  H         0.8672109805        5.1489243669       30.5042059062
  H         1.7635715875        6.4994791305       29.9927552299
  H         0.2943753332        6.3089384006       29.3236599398
  S         4.6804163530        1.6097873920       34.2709578227
  C         4.5659758375       -0.9750856016       34.9427831575
  H         4.2991715687        3.0223799801       18.7160375338
  H         4.6945683251        2.4409150384       17.1897500916
  C         3.1321817369        1.2038221314       17.9762582140
  H        13.9393993913        2.8345092881       21.0497498066
  H        14.9035497697        1.4414984186       21.1935260376
  C        14.2345573515        2.3885735535       23.1662639629
  S        10.2306913483        9.8644368118       17.3091774064
  N        10.5734991871        9.4415846837       15.7600435062
  C        10.5932593266        7.4579984841       14.4106485390
  H        10.3135863095        5.5025734071       13.5031118370
  C         4.3045742615        0.9916938064       35.8463163108
  N         4.1911226742       -0.3385387734       36.0308284318
  O         4.6942492393       -2.1981175274       34.8188021102
  H         2.3561503905        1.8988079795       17.7476669692
  H         2.8836030048        0.8828850437       18.9344099131
  C         3.1349595203        0.0753757527       16.9288995070
  H        13.3095509788        3.0207021811       23.3739611628
  H        14.1147836233        1.5122957720       23.8070443757
  C        15.5636735880        3.0493986630       23.4906277300
  C        10.7869893532        8.2685773947       13.3152387976
  S         3.7824405629        2.0666495080       37.0826809983
  C         4.1862424806       -1.0066655722       37.3379124716
  H         2.3525191325        0.3565533536       16.2113199962
  H         4.1566968146       -0.1267403155       16.4705978253
  C         2.7169277650       -1.2632213687       17.6321943725
  H        15.5117736868        3.8299162248       24.1449698381
  H        15.7661808578        3.4661657468       22.4578705977
  C        16.7045260352        2.0440865724       23.9277997546
  H        10.3921335764        9.2209373244       13.2152681054
  C        11.4069127781        8.0753510347       12.1337788436
  H         3.4581872260       -0.4724671006       37.9069629179
  H         3.7459775318       -1.9803641198       37.2839377907
  C         5.6402508027       -1.0442163530       38.0007789357
  H         3.4007518088       -1.5928686153       18.4006875955
  H         2.8088766802       -2.0432106228       16.8856377077
  C         1.2613728060       -1.2981254027       18.0852914672
  H        17.1392996176        2.5538021322       24.7725545193
  H        16.3113299620        1.1079092860       24.2525942006
  C        17.8340375352        1.7733867920       22.7954762531
  S        12.1850694066        6.6128946945       11.5624897952
  C        11.5270471776        9.2324164824       11.0997807627
  H         6.3999200400       -0.9549186694       37.2565251271
  H         5.7910444325       -0.2272560279       38.6534168514
  H         5.7843334793       -2.0191577280       38.6316114444
  H         0.9523626604       -2.3452922632       17.9351152495
  H         0.6124071289       -0.7137840509       17.3638954101
  H         1.1996497222       -0.7837130007       19.0937703298
  H        17.9746840303        2.5931039042       22.0602542570
  H        17.5137227001        0.9062491088       22.1785640951
  H        18.8102895172        1.4701730707       23.1918475473
  C        12.4495659517        7.4491362118       10.0350611386
  N        12.2017380195        8.8112643876       10.0069919962
  O        11.3151053366       10.4833283230       11.3472054115
  S        12.9493680343        6.8318831737        8.5328791059
  C        12.3531980203        9.6756234820        8.8570512672
  H        12.5600963205       10.6443537011        9.3979444664
  H        13.1886856023        9.5113142897        8.2106940387
  C        11.0674312112        9.7856262751        8.1319365460
  H        10.3565535075       10.5427910154        8.5440538174
  H        11.3064224500       10.3719545996        7.2884731514
  H        10.4989801784        8.8104765076        7.8590177988
  H         4.4632752477        1.4076145112       12.5708709029
  C         4.1077772834        2.4259111987       12.7544123755
  H         4.9730846046        3.1004118992       12.7825962664
  C         3.1491206989        2.4947920156       11.5382420227
  C         3.4028475773        2.3139102436       14.1036648052
  C         4.0634959774        2.7256843181       10.3248133935
  H         2.4630327478        3.3170707981       11.6995547844
  H         2.6548424923        1.5346072272       11.3575228435
  H         2.9867490588        1.2763056857       14.0130525533
  H         2.6949068582        3.1371197001       14.2422103082
  H         4.1152040030        2.3754023165       14.8823416688
  C         4.8782411047        1.4878302333        9.8723635473
  H         3.6215939233        3.1594648832        9.3976897546
  H         4.6994548957        3.5424430823       10.6077407125
  C         5.5172083932        1.6685436293        8.5064924890
  H         4.2246542573        0.6138952579        9.7618860496
  H         5.6324571774        1.2254957174       10.6441300019
  C         6.6315870305        2.7094197811        8.4011077974
  H         4.7587486375        1.8616347205        7.7565173309
  H         6.0791232342        0.7824271961        8.2053437125
  C         7.9657656243        2.1632384890        8.9765798696
  H         6.8104436937        2.9793322526        7.3520119970
  H         6.2372181113        3.5238268408        8.9866277323
  C         9.1845492129        3.0572248594        9.0406478812
  H         8.1451252273        1.1255574420        8.4453489689
  H         7.7021308726        2.0417604116       10.0601430483
  C         8.7228194645        4.3656567579        9.6784187674
  C         9.5629557371        3.7377363178        7.7551403498
  C        10.4045346092        2.3231290874        9.6697400996
  C         9.0940595488        5.4798384119        8.8922696400
  C         8.0497953171        4.7390216357       10.8666618745
  C         9.5676291345        5.0872894171        7.6549249064
  C        10.0762110537        3.1335736615        6.6119431229
  H        10.0604182487        1.9386117825       10.5944498720
  H        10.6341731530        1.3690099764        9.0832184287
  C        11.6251507948        3.0992331346        9.9101550490
  S         8.8277613774        6.9397025040        9.7070268078
  C         8.0149392366        6.1053424661       11.0191018846
  H         7.6301392304        4.0525163001       11.6428259653
  C         9.8365407020        5.6503503377        6.4444178491
  H         9.9211058719        2.0421398324        6.5797382146
  C        10.3296514652        3.6595406584        5.4008782333
  H        11.2540902964        3.9507935016       10.4087257198
  H        12.1298563569        3.4694862276        9.0242160535
  C        12.7377639041        2.6094825161       10.8089869137
  C         7.5642933305        6.8230383735       12.2365041130
  C        10.2402449291        4.9911721856        5.2333815399
  H         9.7471992820        6.7107510499        6.2757792275
  C        10.7103590575        3.2212383533        4.1327406129
  H        13.5489289589        3.2926947909       10.7016758115
  H        13.0878242657        1.6056252458       10.6340796553
  C        12.2089963846        2.6092438378       12.2752724591
  C         7.6207189321        8.1926740136       12.4600865279
  C         6.9545096835        6.0263217110       13.3535023010
  C        10.5950098390        5.6011984343        3.9707415741
  C        10.8469927589        4.2723107046        3.3044961097
  S        11.0537135286        1.6530290481        3.4331686459
  H        11.8797078712        3.6369288825       12.4550251927
  H        11.2980648294        1.9863430425       12.3568850973
  C        13.3529481205        2.3140176626       13.1861291082
  N         7.9843491019        9.1977410306       11.5194533546
  C         7.2923271408        8.7490939242       13.7001750059
  C         6.7353272868        6.5056988400       14.6624829406
  H         6.7843131490        4.9936660715       13.2700209398
  C        11.9363128818        6.3760830897        3.9819267002
  C         9.3983621400        6.3902988211        3.3244132091
  C        11.1268255840        3.8445563700        2.0521064556
  C        11.2434721684        2.4637033348        1.9499986393
  H        13.9858492465        3.2583521213       13.2564484034
  H        14.0805286294        1.5738328832       12.7425268341
  C        12.7889313574        1.7342844077       14.4976430764
  S         8.0190929365       10.6047052355       12.3276650540
  N         7.3644443010       10.1209074030       13.7072133150
  C         6.9010375164        7.9045945721       14.8459423871
  H         6.3324728429        5.7961549222       15.4017550858
  H        11.8466060949        7.2839843622        4.5888073360
  H        12.2122226327        6.8682457432        3.0521976779
  C        13.1583675549        5.5858068181        4.4206640252
  H         8.9747083448        7.0323843264        4.0264975429
  H         9.7648354656        7.0471885929        2.3826366129
  C         8.2124971662        5.5789224492        2.8894792276
  H        11.3664686006        4.5868246449        1.2961188643
  C        11.6951829929        1.8171099099        0.6680714857
  H        11.7522351417        2.0853234496       14.4657264645
  H        12.7111156215        0.6264690059       14.5796480151
  C        13.5835994285        2.2283854763       15.6998979660
  C         6.7630739148        8.5385252880       16.1511446922
  H        12.8124204917        5.1703169702        5.3451027792
  H        13.3921672068        4.7520570384        3.7622106363
  C        14.3623756740        6.5015408826        4.5824558524
  H         8.0267886548        4.8964320328        3.6642971421
  H         8.5131972231        4.9226911269        1.9922014077
  C         7.0069409759        6.5017977802        2.5846095318
  C        11.9701970295        0.4212889237        0.5250757374
  C        11.8011248806        2.5181806982       -0.6721891787
  H        13.7100612002        3.2854747558       15.5383578638
  H        14.5442097373        1.8147789082       15.8851956487
  C        12.8753617320        2.1294145579       17.0174958896
  H         6.6001780544        9.6056825273       16.0785323606
  C         6.4777021017        8.0054353315       17.4286304471
  H        14.1243878771        7.3414673932        5.2409568459
  H        14.7066654278        6.9637722641        3.6576244011
  C        15.6019987718        5.7154000932        4.9813182212
  H         6.6776637598        7.0886960247        3.3645131964
  H         7.2259804690        7.3849225880        1.9660713406
  C         5.6321793465        5.7588962950        2.2060586520
  N        11.7183316456       -0.4852831316        1.5584805465
  C        12.2709805733       -0.2022055598       -0.7307860940
  C        12.1507753348        1.9548526273       -1.8544460533
  H        11.5529023665        3.5681613071       -0.7062598178
  H        12.6271679892        3.2041296180       17.5162684712
  H        13.4087231931        1.5786377031       17.8035391126
  H        11.9728147908        1.5755013315       16.8953842768
  S         6.0152096645        6.3994755704       17.8741723260
  C         6.4696772141        8.9293158069       18.5359947829
  H        15.1299477655        5.0676563458        5.7108606941
  H        15.8745320238        5.1029149412        4.0786072734
  C        16.7334137643        6.5306949456        5.6532142855
  H         5.2749070222        5.2736720245        3.0906054530
  H         5.9716861232        5.0149462759        1.4787700638
  C         4.5922607003        6.6129051604        1.3846831263
  S        11.7789152026       -1.9647231882        0.9230658509
  N        12.2422429901       -1.5431741710       -0.5628374688
  C        12.5053993720        0.4558848405       -1.9128395064
  H        12.1144896761        2.5532976366       -2.7707153559
  C         5.9578950032        6.9686533113       19.5132805942
  N         6.1301786005        8.2378202418       19.6569532037
  O         6.5850310436       10.2171225775       18.4117775261
  H        17.4857310039        6.7880003887        4.9972898631
  H        16.4282905762        7.5001901206        6.0544190748
  C        17.3466313247        5.6993293965        6.7735963147
  H         5.1333997953        6.8173172957        0.4918289329
  H         3.8891107775        5.9591755218        1.1022287275
  C         4.0334967822        7.8222683278        2.1243395095
  C        12.8744176202       -0.3138465922       -3.0666949904
  S         5.7646717476        5.9905292673       20.9239909483
  C         5.9183327029        8.8596071659       20.9350986628
  H        16.6651176573        5.5645081022        7.6613308998
  H        17.4007172004        4.6541666224        6.3452492485
  C        18.6480105543        6.2580098572        7.3456849662
  H         4.4329525269        8.0224161741        3.0795787699
  H         3.0808291639        7.5702490325        2.5711484186
  C         3.8377767764        9.0491502200        1.1602816755
  H        12.6874181968       -1.3910871246       -2.9228401255
  C        13.3425811240       -0.0400988927       -4.2739748618
  H         5.3005298742        8.3175463229       21.6515208402
  H         5.3493016818        9.7495953390       20.7613277136
  C         7.3147417916        9.0951133133       21.5569151099
  H        18.6978064222        5.7155302766        8.2144516401
  H        18.4957219161        7.2495086852        7.5770263667
  C        19.8240898577        6.0533450396        6.3946825094
  H         3.9638412396        8.7819743566        0.0922853082
  H         2.8078155285        9.4309462199        1.2559399606
  C         4.7918595855       10.1542584999        1.3838413589
  S        13.9960326302        1.5120378408       -4.7044867144
  C        13.3240003604       -1.0427464562       -5.3632904704
  H         7.2294885854        8.5530786591       22.5497587394
  H         7.5378960484       10.0954701647       21.6143454689
  H         8.1432825074        8.8201920640       20.8915879461
  H        19.7533466206        6.8056337459        5.5873099011
  H        20.7836478072        6.2623064240        6.9578966348
  H        19.9053326881        5.0269403979        6.0214078016
  H         5.1479320704       10.0525709082        2.4004424709
  H         5.6274315631        9.9301985484        0.6684912065
  H         4.5048114824       11.1263423763        1.1495246365
  C        14.1853796886        0.7904360868       -6.3295471796
  N        13.8248943252       -0.4599241938       -6.5019032337
  O        12.9579882182       -2.2266170376       -5.2809664926
  S        14.8408353274        1.5859278173       -7.7542952008
  C        13.9014898427       -1.2250226524       -7.7712837443
  H        13.7404162237       -2.2780286714       -7.4459494958
  H        14.8979339228       -0.9872145279       -8.2208497476
  C        12.6603405624       -1.0932520047       -8.6183883488
  H        12.3306150656       -2.0675114701       -8.9610937604
  H        13.0092643322       -0.7962877764       -9.5875874110
  H        11.8788235624       -0.4695565014       -8.0905297742
