352
 i =   104400, time =    52200.000, E =        99.6896492712
  H        10.0350703947        4.6126977297       31.4465490302
  C        10.6000807123        5.3671034742       31.9691658690
  H         9.9425869557        6.2240930334       32.0047421607
  C        11.8586950826        5.6184491691       31.1721644528
  C        10.9195921684        4.8088676099       33.3645034687
  C        11.5713584515        6.0492214627       29.6985531049
  H        12.4909456169        6.3242294331       31.7180678113
  H        12.3343708873        4.6901290873       31.0862631978
  H        10.0335195681        4.7170628551       33.8962705399
  H        11.3436496868        3.8070955353       33.2957983406
  H        11.5854179346        5.4969921368       33.8912219304
  C        11.3109124493        4.9155322126       28.7298602663
  H        12.4551602469        6.5814115508       29.3275980895
  H        10.7645017358        6.7813644800       29.8279457284
  C        11.4287367799        5.3451522098       27.2618304997
  H        12.0557154331        4.1299368479       28.9636215317
  H        10.2103268638        4.5261535032       28.8369181081
  C        10.4006138979        4.7745910228       26.2313643913
  H        12.4355557784        5.0965231667       26.9114922652
  H        11.4934811790        6.3541829388       27.2307750491
  C         9.0905003216        5.5316977060       26.2379138910
  H        10.8217415893        4.6463466750       25.2269023149
  H        10.1954892238        3.7606240989       26.5792896296
  C         7.9804453197        4.8324181036       25.4397545086
  H         8.8029108974        5.5519211515       27.2376460083
  H         9.2592864928        6.5289100198       25.9501369669
  C         7.6532739747        3.4861997568       26.0773899069
  C         8.4132491362        4.2029561484       24.1236103860
  C         6.7319019384        5.6842001513       25.5640160993
  C         7.9615350180        2.4027537176       25.2578921127
  C         6.9995908851        3.0807128327       27.2602870369
  C         8.4182299349        2.8669501016       24.0192492399
  C         8.7286400204        4.8482380709       22.9587251012
  H         6.8744097695        6.7006356577       25.0745346216
  H         6.5847888330        5.8409643313       26.6071459966
  C         5.4369129220        5.0377463148       25.0966713351
  S         7.3608361605        0.8796179986       25.8497613593
  C         6.8501016785        1.6869979826       27.2874139547
  H         6.7814932283        3.8262039886       28.0562138403
  C         8.7066782577        2.2755855230       22.8613341537
  H         8.6931342198        5.9340388754       23.0548295212
  C         8.9843327387        4.3236369051       21.7633649409
  H         5.5949967188        4.5549829118       24.1627403525
  H         5.0181507546        4.3139563890       25.6950868369
  C         4.3212459839        5.9665217574       24.6990727743
  C         6.3421684706        0.8675411279       28.4968138288
  C         9.1300883012        2.9773664906       21.6752056820
  H         8.6932789056        1.1596913499       22.7876756824
  C         9.2390075068        4.8025951080       20.4688747361
  H         3.5962726939        5.5472193616       23.9446082830
  H         4.7860447285        6.7712827671       24.1943315066
  C         3.5177311546        6.3924845033       25.9604655304
  C         6.4241506141       -0.5186531580       28.6793103831
  C         5.7275362962        1.6933923220       29.5841731733
  C         9.5760680420        2.3358189594       20.4058526763
  C         9.6875604105        3.7132682834       19.7130282478
  S         9.5149927981        6.3628775584       19.7925659161
  H         3.0115552970        7.3411774061       25.7050435410
  H         4.1815104444        6.6288675827       26.7317511038
  C         2.4953723044        5.3247195352       26.4497041836
  N         6.9381625543       -1.4734491644       27.7363097915
  C         6.0569563691       -1.1030151302       29.8926581438
  C         5.4420160231        1.1087408779       30.8094724219
  H         5.5810455742        2.7721905774       29.4761737523
  C         8.5466802207        1.4503267122       19.7636935104
  C        10.9316055278        1.5246512863       20.5491812946
  C         9.7992264480        4.2003884163       18.3421388291
  C         9.9296809152        5.5443889488       18.3465726137
  H         1.4726631684        5.5293141023       25.9325868573
  H         2.7885451069        4.3297669157       26.1254054989
  C         1.9985163618        5.3551022108       27.9035330963
  S         6.7353125327       -2.9193728257       28.3952958489
  N         6.1707885732       -2.4799413698       29.8403977117
  C         5.5147100013       -0.3700046433       31.0069714018
  H         5.2397332310        1.6812313125       31.7084993797
  H         8.3219075649        0.5882632410       20.4559665256
  H         8.8983153096        0.9883438753       18.8630963023
  C         7.3304734116        2.2256609129       19.2169624593
  H        11.2803359372        1.4662137838       19.5257142725
  H        10.7001947491        0.5597591762       20.9496580848
  C        12.0350811149        2.2421044623       21.4176183235
  H        10.0713425161        3.4739991008       17.5988918663
  C        10.3069479282        6.3405821873       17.0898023759
  H         1.1631547039        4.5910102437       27.9344227674
  H         1.8171641828        6.3591386129       28.2353837353
  C         3.0563436271        4.8301646869       28.8837122110
  C         5.3222930541       -1.1550929978       32.2207390123
  H         7.4313140597        2.8303224877       18.3610976085
  H         7.0080026371        2.9774184232       20.0211175661
  C         6.1021029799        1.3428659308       18.9778471469
  H        11.7277002193        2.3549533328       22.4724216296
  H        12.1984920077        3.3033147452       21.1232791470
  C        13.3971865999        1.5729069046       21.2567114344
  C        10.2889091577        7.7846712660       16.9724782553
  C        10.4740532418        5.6148472099       15.8517099367
  H         3.5048426062        3.8969934243       28.5523426377
  H         3.9416605261        5.5165524697       28.9397601440
  C         2.4748054539        4.6735679872       30.2924651356
  H         5.3464847534       -2.2019241954       32.1280979564
  C         5.1156095879       -0.7516905243       33.4879129983
  H         5.7288746443        0.8925261530       19.9413126302
  H         6.4991145859        0.5412769464       18.3894109033
  C         5.0588799215        1.9565035629       17.9944438210
  H        13.4532801724        0.7042331587       21.9315437466
  H        13.5369391503        1.1289555792       20.1924781639
  C        14.5134829887        2.5794793983       21.5517435592
  N        10.1276437657        8.7422598483       17.9774685288
  C        10.6250817621        8.4036722115       15.7556691164
  C        10.8250294277        6.2487115987       14.6353751981
  H        10.4437940389        4.5517357548       15.8227788769
  H         3.1047697575        4.1098094045       31.0094302033
  H         2.5042746986        5.7320685415       30.7022270086
  H         1.5064809218        4.1774705283       30.2975311230
  S         4.7365884873        0.8531167277       34.1204585744
  C         5.0750286849       -1.7782111948       34.5130950782
  H         4.8957484324        2.9706658105       18.3381120046
  H         5.6070720704        2.1080881206       17.0532495269
  C         3.7481780928        1.2716457666       17.9297885514
  H        14.2996091198        3.4107681102       22.1752180177
  H        14.7568361426        3.2027960718       20.6473307956
  C        15.7308804656        1.8085997331       22.0290061744
  S        10.1874901448       10.2743514880       17.3408500900
  N        10.5730253393        9.7964960182       15.8020763556
  C        11.0185886669        7.7403435294       14.5991414432
  H        10.8941302415        5.7293839585       13.6705424295
  C         4.6136159297        0.0532815625       35.7143532893
  N         4.6662306916       -1.2599892946       35.6563241809
  O         5.2077364534       -3.0289145921       34.2816676804
  H         3.4890931786        1.1676351987       16.8910067515
  H         3.1543681739        2.0953659113       18.3877667368
  C         3.4674386352       -0.1004044384       18.5509307787
  H        15.6289963893        1.3092369408       22.9106283424
  H        16.0200832319        1.0393639894       21.3273753120
  C        16.8903646951        2.6533954765       22.3715145751
  C        11.3360441914        8.5103932118       13.4433115828
  S         4.0536393568        0.8353359788       37.2236874733
  C         4.6811343303       -2.0483524439       36.8864094721
  H         4.3335110274       -0.8143484419       18.3626938790
  H         3.3171095597        0.0113454454       19.5944413182
  C         2.2184155433       -0.9009652293       18.1425492413
  H        16.6249892066        3.3978551206       23.1384441366
  H        17.1035630052        3.2325435886       21.4806589828
  C        18.1400368667        1.9967449601       22.8668673932
  H        11.2987889854        9.5776821650       13.5891494294
  C        11.7680462182        8.2441914836       12.1815211647
  H         3.9348334515       -1.7470942019       37.6859599264
  H         4.3777649814       -3.0863490536       36.6182431042
  C         6.0598823122       -2.1247229606       37.5864125754
  H         1.4053737044       -0.1877729919       18.0645645628
  H         2.0591620844       -1.5986711042       18.9481978381
  C         2.4186257783       -1.6133679928       16.8114457847
  H        18.4418505679        1.1277612146       22.2593669409
  H        18.9998442131        2.6425081801       22.8291490177
  C        18.0336205076        1.5902776357       24.2902343863
  S        12.1515633413        6.6656712004       11.5358981326
  C        11.8166953567        9.3517540317       11.1825335573
  H         6.3916486835       -1.0957311654       37.9094088261
  H         6.0784611022       -2.7523774749       38.4216247154
  H         6.8360067847       -2.5021052723       36.9242556268
  H         2.5630029985       -2.6645560242       16.8346159426
  H         3.3041426947       -1.1533514084       16.4361554427
  H         1.5744215476       -1.3219439193       16.2082015511
  H        19.0944909988        1.3682989346       24.6766786844
  H        17.2934833876        0.8263883647       24.3527463921
  H        17.7194821155        2.4038256339       24.9803047316
  C        12.4689314746        7.4812696566       10.0304930171
  N        12.2799880145        8.8578818193       10.0173992421
  O        11.4823350350       10.4965428534       11.4449243602
  S        13.0095032848        6.7375946362        8.5357756008
  C        12.4475417675        9.6503947417        8.7882694557
  H        12.4444570702       10.6466492104        9.1330026054
  H        13.3293640156        9.4118649634        8.1269038702
  C        11.1243078659        9.6699336952        7.9581803266
  H        10.2957810926        8.9079060448        8.1732446527
  H        10.7060125013       10.7011360936        8.1540876143
  H        11.3745601496        9.6076806756        6.9352886097
  H         2.5720903853        2.9946420562       12.8544030518
  C         3.4804787126        2.3488017305       12.9188898926
  H         3.2326836893        1.2698817779       13.0011691399
  C         4.5036257241        2.5063337599       11.8396926990
  C         4.1108378281        2.5734031016       14.2387642350
  C         4.0318427740        2.0740684466       10.4294930401
  H         5.4438692492        1.9364119824       12.0897083778
  H         4.8661980995        3.4796070844       11.5036022095
  H         5.0929052415        3.0198263190       14.1348584829
  H         4.4978864213        1.5906241311       14.6555884877
  H         3.5442298401        3.0714238582       15.0840348091
  C         4.9744640047        1.0809633635        9.6658260955
  H         3.0396298104        1.5447936674       10.3826195435
  H         3.8430337600        2.9331012285        9.7791619817
  C         5.6041958512        1.7865754328        8.4992740968
  H         4.3657338204        0.2697499555        9.3553633333
  H         5.7931633217        0.8218186311       10.3600994881
  C         6.7867009926        2.7247995261        8.8458573908
  H         4.8489688939        2.1765210606        7.7792227531
  H         6.0194911346        0.9549277705        7.8673469974
  C         8.1283506644        1.9379861480        8.8934381644
  H         6.6801766808        3.4910799667        8.0256632232
  H         6.6161493710        3.2087729947        9.8202510967
  C         9.3829365104        2.8515989018        9.1630922118
  H         8.2980871057        1.3593936794        7.9956366828
  H         8.1434607538        1.0973259707        9.6594773694
  C         9.0250603569        4.1759543841        9.9028356513
  C         9.7567763316        3.5839916347        7.8866371034
  C        10.5887705258        2.1048994670        9.8039182787
  C         9.3146566306        5.2729455783        9.1277333203
  C         8.6390673545        4.5018167803       11.1863876902
  C         9.7628437088        4.9234774270        7.8508652589
  C        10.0669973234        3.0077874795        6.6658102221
  H        10.2338290981        1.6710748440       10.7038598090
  H        10.9422406168        1.2977452359        9.1629741048
  C        11.7413526862        2.9598482944       10.3068716168
  S         9.0384982496        6.8006679324        9.9705711227
  C         8.4864114532        5.9071054962       11.3294515039
  H         8.5276478506        3.7182986816       11.9340526378
  C        10.0328467977        5.5546678664        6.7272751367
  H        10.0664023330        1.9106368356        6.6237105688
  C        10.4337391240        3.6834482628        5.5487021197
  H        11.5185135281        3.9216683632       10.7627983982
  H        12.1755589747        3.3246582936        9.4073047614
  C        12.6804812792        2.2925750379       11.2578697952
  C         8.1699906466        6.5626229944       12.6487596848
  C        10.4253910022        5.0394485761        5.5066171930
  H        10.1116190321        6.6735159929        6.8429283156
  C        10.9119030815        3.3330173303        4.2961024874
  H        13.7012041788        2.6852745250       11.1435052230
  H        12.8527377474        1.2834529691       10.8300317697
  C        12.1824188782        2.3672943821       12.6607270636
  C         8.1474330179        7.9539775681       12.9790803623
  C         7.8478284661        5.6706402308       13.7862672760
  C        10.8327827781        5.7976179044        4.2753360298
  C        11.0562990794        4.4387358382        3.4705230335
  S        11.1405992096        1.8274940390        3.4450853039
  H        11.7051667864        3.2753949377       12.9065868244
  H        11.4025339753        1.5989570967       12.8091520886
  C        13.2065127623        2.1834469304       13.7039104454
  N         8.4153277629        8.9053626999       12.0043198219
  C         7.6931563486        8.4298363970       14.1790648862
  C         7.4181079374        6.1852139168       14.9540448290
  H         7.7180054297        4.5963679594       13.6821651389
  C        12.1064239274        6.6263978493        4.5387822619
  C         9.6418025837        6.6494378065        3.7349823335
  C        11.4178724555        4.0698042449        2.1310954290
  C        11.4680097095        2.6902301075        2.0305005404
  H        13.8841590624        2.9734185242       13.5754771768
  H        13.7167406869        1.2258943317       13.5673881731
  C        12.8002386474        2.4346254713       15.0950964761
  S         8.2382246680       10.3256656170       12.8012425641
  N         7.8753865522        9.7767482282       14.3121008318
  C         7.3271848835        7.6246842509       15.2866175339
  H         7.2113314979        5.5129980313       15.7521559829
  H        12.0346075467        7.3553541037        5.3559877510
  H        12.3908061281        7.1781768482        3.7154246006
  C        13.3117468388        5.7824478112        4.8737552815
  H         9.2684243061        7.3189696642        4.4986356977
  H         9.8478944645        7.3238328400        2.9137503744
  C         8.4442557177        5.7642275069        3.2957145266
  H        11.5277492688        4.8355730749        1.3302987910
  C        11.8142655111        1.8656519068        0.8203448886
  H        12.1354004682        3.2235054404       15.2139039763
  H        12.2068712098        1.5657406238       15.3951265228
  C        14.0399520376        2.5984882663       16.0714957123
  C         7.0411711284        8.1588692760       16.5877845916
  H        13.1831538351        5.1463284484        5.7304420703
  H        13.5898715245        5.0336769025        4.0568969868
  C        14.5316529216        6.6466935534        4.9154718506
  H         8.1709728406        5.1969702145        4.1911688034
  H         8.5747817276        5.1156128530        2.4647835839
  C         7.3627841713        6.6778249828        2.6790272377
  C        11.8657337731        0.4083326802        0.8042941498
  C        11.9901471461        2.5363277831       -0.4730391057
  H        14.7331432445        3.3511856302       15.7642681796
  H        14.5638194388        1.6634187190       16.1107306063
  C        13.5522233648        2.8912341653       17.5143116299
  H         6.9519299416        9.2276912609       16.4615818413
  C         6.6936800012        7.6659159807       17.8389327485
  H        14.4909579039        7.4016262849        5.6348883947
  H        14.5947849643        7.1774964666        3.9561621549
  C        15.7915898008        5.7823491556        5.1385268097
  H         7.0990061836        7.4274810008        3.4476252725
  H         7.6530688703        7.2119981344        1.7554333590
  C         6.1081738238        5.8156446389        2.3413194292
  N        11.3860677878       -0.4234756286        1.7901906760
  C        12.1753606496       -0.2765300522       -0.3606750239
  C        12.3061129217        1.8341911411       -1.6136190011
  H        12.0051727983        3.6108403936       -0.5372879652
  H        12.8001876174        2.2010020998       17.8918004253
  H        13.0972896564        3.9262659583       17.5962507646
  H        14.4424459168        2.8616806689       18.1239216888
  S         6.4389500833        6.0490605283       18.4310037746
  C         6.6897730830        8.7250929118       18.8614988714
  H        15.7295875584        4.8393132916        4.6185703224
  H        16.6249571268        6.3643523922        4.5920333896
  C        16.1202750181        5.5784451032        6.6393196941
  H         5.9067590515        5.0559916814        3.0528421821
  H         6.2322419655        5.2486368585        1.3798607832
  C         4.8827177369        6.6519611758        2.3200953502
  S        11.6442369153       -1.9227161283        1.3589991366
  N        12.1149817374       -1.6576444228       -0.1645861066
  C        12.3591690211        0.3578206332       -1.6263596444
  H        12.4001083562        2.4110382809       -2.5340756972
  C         6.0840350138        6.7943241401       20.0229496056
  N         6.3077171156        8.1528794703       20.0690592247
  O         6.9316085592        9.8850129695       18.6787855985
  H        16.0065740755        6.4815267599        7.1917136366
  H        15.4143164312        4.8925162362        7.0553642850
  C        17.4996585115        4.9770183588        6.7685445016
  H         4.0555911660        5.9636005374        2.2456055317
  H         4.7010003032        7.2115584280        3.2124014186
  C         4.8165229964        7.5209812652        1.1175998047
  C        12.7616929190       -0.4387948100       -2.6955352750
  S         5.7119450308        5.9054093530       21.4217983187
  C         6.2183121522        8.9947823166       21.2659054903
  H        17.5723942737        4.4861530259        7.7228195397
  H        17.7261742476        4.1514245523        6.0628452659
  C        18.5897541372        6.1199999022        6.8132478684
  H         4.6623907576        6.9416172582        0.1559161722
  H         5.7943146197        7.9978572901        1.0766160465
  C         3.6978258637        8.5933693588        1.3287434654
  H        12.4070304963       -1.4222888128       -2.6605000883
  C        13.2284891961       -0.2101047008       -3.9423447564
  H         5.3667886988        8.8427183965       21.8957809321
  H         6.1732032578       10.0727253899       20.9985128225
  C         7.5897753373        8.8348067251       21.9471006076
  H        18.7806579117        6.4407351426        7.8303652467
  H        18.2451480463        7.0046494966        6.2584414070
  C        19.9179788856        5.5956144233        6.0362469605
  H         3.2387500951        8.7832980806        0.3201665987
  H         2.9897431047        8.2351620322        2.0050300861
  C         4.2919619671        9.9446062918        1.6488641025
  S        13.6768090036        1.2749500008       -4.6874827190
  C        13.2791797993       -1.3871907690       -4.8272993264
  H         7.8874090186        9.7826479508       22.3847866083
  H         8.4724580903        8.4992029218       21.3928972108
  H         7.3944041190        8.0729194590       22.7981286951
  H        20.6533324748        5.3024100094        6.7571395463
  H        19.6460691794        4.7083891389        5.4402777933
  H        20.3657265448        6.3386315309        5.3229073432
  H         5.1460167011       10.1939218048        1.0756461706
  H         3.5250793042       10.7534241764        1.3407315873
  H         4.6228010451       10.0997861089        2.7020814315
  C        14.0852602558        0.2924540529       -6.1174032567
  N        13.8350966162       -1.0104937716       -5.9480481695
  O        13.0410286234       -2.5382884009       -4.4753480027
  S        14.7429073052        0.8200227562       -7.7275168834
  C        13.8840975551       -2.0352705716       -7.0497623376
  H        14.2386096842       -2.9395052337       -6.6032366788
  H        14.6406414122       -1.8343160544       -7.8065148294
  C        12.5985643171       -2.0298292393       -7.8877198606
  H        12.3114055912       -0.9988809940       -8.1507808087
  H        11.8267605560       -2.5883413305       -7.3292327536
  H        12.7261683959       -2.6186003349       -8.8022257484
