352
 i =    33300, time =    16650.000, E =        98.1912985104
  H        10.8455525776        4.4614231350       31.8507023772
  C        10.8279109779        5.4952296833       32.3036366714
  H         9.7945755455        5.6805056762       32.6589762191
  C        11.2443926845        6.6623391238       31.3786650783
  C        11.6188131388        5.3538389003       33.6080119361
  C        11.6336562725        6.0717083525       30.0200976293
  H        10.4579824849        7.3320301583       31.1688301314
  H        12.1534761013        7.1911482757       31.6917787161
  H        11.1109799757        4.6878187942       34.2309929776
  H        12.6291300203        4.9358108763       33.3427208429
  H        11.5769297779        6.3050908259       34.1856919002
  C        10.4366461649        5.6852304142       29.1712444513
  H        12.2434583028        5.2776649766       30.3096418183
  H        12.1506643552        6.8582539123       29.6964114478
  C        10.6891594044        5.6662025374       27.5891742515
  H        10.2771459826        4.6956764303       29.5059361688
  H         9.6421037299        6.3841507921       29.4166113604
  C         9.5418031535        4.9910217568       26.9122360959
  H        11.5141554214        4.9801820915       27.3229837965
  H        10.7770807119        6.6832057864       27.1620145574
  C         8.2669004840        5.9278941725       26.5952233118
  H         9.9338981816        4.7218047402       25.9009328702
  H         9.2052416822        4.0830571730       27.3529830147
  C         7.1081172015        5.2169192660       25.8570806533
  H         7.9785693743        6.2297515965       27.6143892660
  H         8.5454388922        6.7763600672       26.1093342407
  C         6.6616815820        3.8384082807       26.5766520101
  C         7.4492312087        4.5034594818       24.5814394134
  C         5.7999852897        6.0593456874       25.7031404372
  C         6.9571532784        2.7095598442       25.8497960536
  C         6.1212791552        3.4409346095       27.8084221779
  C         7.3667294051        3.1100818280       24.5905290501
  C         7.9398833484        5.0748334188       23.4153353001
  H         6.0648043510        6.8150023920       24.8403831193
  H         5.5685121356        6.6628262295       26.6089665757
  C         4.5500684952        5.2271083129       25.3135151027
  S         6.6683665589        1.2023353006       26.6227896625
  C         6.1517670320        2.0987990710       27.9907195541
  H         5.7776054780        4.2329805783       28.3861067350
  C         7.7543345285        2.3987204326       23.4897961131
  H         7.9700016946        6.1755995708       23.3175347051
  C         8.2814975878        4.3930492667       22.3514376081
  H         4.6838892082        4.9623100333       24.2316906849
  H         4.3579773278        4.3200474502       25.9259580483
  C         3.3813183923        6.1514296423       25.2616433651
  C         5.8137484336        1.3330367001       29.2414028620
  C         8.2281046203        3.0168998850       22.3203711011
  H         7.7645816225        1.3122570648       23.4221900283
  C         8.6479601777        4.6960316773       21.0447432410
  H         2.6351850407        5.6604723716       24.6241797484
  H         3.6052776340        7.0477479938       24.7351935810
  C         2.7189058684        6.4348265823       26.6198435767
  C         5.9524032217       -0.0366030785       29.4784314445
  C         5.4403910110        2.1300620898       30.4319473190
  C         8.6280397501        2.3149073453       21.0442608744
  C         8.8003181970        3.6052043717       20.2482698722
  S         8.8774118617        6.1598265979       20.1992565083
  H         1.9607328524        7.2054485096       26.3733398386
  H         3.3456061886        7.0619372543       27.2821938519
  C         2.0561834472        5.1020025414       27.2182058816
  N         6.3357767659       -0.9514719188       28.5193194845
  C         5.6914272565       -0.6517777081       30.6865759705
  C         5.3357036442        1.5697738038       31.6471931653
  H         5.3334569940        3.2193042862       30.1792230758
  C         7.5231205809        1.3483487679       20.3983518298
  C         9.9407312574        1.5388531007       21.0342316727
  C         9.1594450095        3.9653623078       18.9265980425
  C         9.1982365788        5.3442720044       18.7618326033
  H         1.4706385525        4.5968705913       26.4807785153
  H         2.9031939055        4.4530249409       27.5701314916
  C         1.1151738380        5.4405840347       28.3815658532
  S         6.4574486777       -2.3767651396       29.2416207687
  N         5.9361328157       -2.0380118358       30.7476108486
  C         5.3306802159        0.1352835424       31.8150535278
  H         5.0986468990        2.2253512938       32.4111027765
  H         7.4992393036        0.3948084777       20.9474965292
  H         7.8195544118        1.1995572113       19.3706976661
  C         6.1977083668        2.0267048592       20.3493540964
  H        10.1469814095        1.3867182484       20.0141074482
  H        10.0040615098        0.5497793047       21.5212357036
  C        11.1192024082        2.3703646477       21.5377215733
  H         9.3291695753        3.2449741817       18.2336839093
  C         9.5909355770        6.0720585829       17.4978411594
  H         0.2263256714        4.7711274121       28.4505436335
  H         0.7413159130        6.4557362504       28.1853646568
  C         1.8208563073        5.3795870278       29.7437284002
  C         4.9872474758       -0.5228226521       33.0304646695
  H         6.0672889213        3.0663898360       19.9417388451
  H         5.6505043980        2.0553814137       21.3231609245
  C         5.4642074056        1.3152720440       19.2359704986
  H        10.9162532679        2.8936037902       22.4361832365
  H        11.3481076737        3.1537277333       20.8521474239
  C        12.3243661467        1.4883518671       21.7046848471
  C         9.6574732833        7.4620217213       17.3359358780
  C         9.8977554527        5.3020616912       16.2960358716
  H         2.1306053351        4.3157353690       29.8137537168
  H         2.7871000472        5.9877786095       29.8095755056
  C         0.9081132708        5.7996752125       30.9101818618
  H         4.8512908310       -1.5684037159       32.9270294491
  C         4.7724971778       -0.0272463513       34.3494737265
  H         5.5289422211        0.1774421838       19.4160122692
  H         5.9899496081        1.0599399413       18.3136502640
  C         3.9663941507        1.6796707656       19.0742372175
  H        12.1981946654        0.9764609567       22.6968907166
  H        12.2917959589        0.7848015825       20.8482371145
  C        13.5835281139        2.2947115990       21.5130556625
  N         9.5481947415        8.4721470334       18.2841705969
  C        10.0984749839        8.0174775662       16.1385632300
  C        10.2328681632        5.8274934831       15.0899133580
  H         9.8425524687        4.2383174668       16.4226135609
  H         1.4532934042        6.1782159189       31.7287758775
  H         0.2067008223        6.5983004952       30.7919578633
  H         0.4168322838        4.9243370086       31.3192798055
  S         4.5814717386        1.6143859275       34.8185145199
  C         4.7821786975       -1.0943916458       35.3648676556
  H         3.7396956350        2.4795633371       19.7593058174
  H         3.5709499811        2.0932923153       18.1064204397
  C         3.1316868547        0.4873536072       19.4573584932
  H        13.3822456441        3.2328571123       22.1158038712
  H        13.7625490739        2.4147356839       20.4403727140
  C        14.8941648747        1.7055111444       22.0596292663
  S         9.8546907986        9.9138905277       17.6510502605
  N        10.2244052456        9.3914061635       16.1507414491
  C        10.3036952667        7.2613583387       14.9160004912
  H        10.5203281120        5.1728423765       14.3096186462
  C         4.4283262667        0.9010010543       36.4151437172
  N         4.5918666719       -0.4553282113       36.5770324110
  O         4.9514175563       -2.3158489662       35.2249213471
  H         2.1374490498        0.9356751528       19.6849504359
  H         3.5821523658        0.0356663922       20.3579573917
  C         2.9949754131       -0.4601190835       18.2311572526
  H        14.7864826731        0.6736763416       22.1501369394
  H        15.6478197201        1.9482361310       21.3161402431
  C        15.3737896043        2.3381842286       23.3463047615
  C        10.5171449960        7.9290376740       13.6411247056
  S         4.2290948933        1.7286663106       37.9090276207
  C         4.5852194876       -1.2459882101       37.7964325369
  H         2.4202145600        0.1583584730       17.4811187103
  H         3.9229436395       -0.7843741287       17.6930517242
  C         2.1102324895       -1.6566152662       18.6823315114
  H        14.7413289496        2.0136170864       24.1005163966
  H        15.2165995968        3.4204509825       23.2874197502
  C        16.8048651675        1.9248344790       23.6983896662
  H        10.2643456427        8.9861224373       13.7006462158
  C        11.1020613884        7.5608433180       12.4698510319
  H         3.7250120322       -0.8750583874       38.3897727140
  H         4.3204119941       -2.2690313408       37.5887064155
  C         5.9364335838       -1.2672031307       38.4244877616
  H         1.1946929175       -1.2525735866       19.1014528706
  H         2.5106628425       -2.2119998308       19.5922123035
  C         1.9331752028       -2.5812965493       17.5211132994
  H        17.1498003939        2.4456389286       24.6030738348
  H        16.8797729472        0.9118322163       23.8985105963
  C        17.8677952326        2.3005680057       22.5730066495
  S        11.8070333816        6.0047058028       12.1568757540
  C        11.3496309080        8.5269251499       11.3962429006
  H         6.3620340910       -0.2919041388       38.6186654959
  H         5.8327295576       -1.6822123114       39.3985763244
  H         6.7210102568       -1.7776747014       37.8326465235
  H         1.2751981979       -2.0359930461       16.8145421344
  H         1.4269377778       -3.4467334635       17.8450611695
  H         2.9326027241       -2.9178458155       17.1955506547
  H        17.8111761004        1.7098941716       21.6252767136
  H        18.8898344479        2.3983852468       22.8380898693
  H        17.4980099730        3.2052612673       22.1840475656
  C        12.2494788866        6.5976452536       10.5559833121
  N        12.0206015265        7.9418498895       10.3995125727
  O        11.0397660898        9.7218812248       11.4655526432
  S        13.2750089551        5.7381210759        9.3747843944
  C        12.3312087014        8.6845062548        9.2547621282
  H        12.6940678774        9.6527820410        9.4477787423
  H        13.1669186622        8.3415997872        8.7626354709
  C        11.0912804772        8.7347649283        8.3480127254
  H        10.3987638169        9.5427693765        8.6344869380
  H        11.3713985021        9.0381201556        7.3536503234
  H        10.6047384313        7.7436341862        8.2404431958
  H         2.8085966678        1.0327995194       13.0975695483
  C         3.5497113588        1.4292492130       12.4072522367
  H         3.8127583108        0.5052601428       11.9035202167
  C         2.9091580521        2.3310679244       11.3378727305
  C         4.6679347835        2.1855507708       13.1604596315
  C         3.7471511466        2.7619718247       10.1670663296
  H         2.4937365326        3.1684381463       11.8792213990
  H         2.0592847028        1.7907978194       10.8362136304
  H         4.8499997190        1.7880716058       14.1897247746
  H         4.3493185901        3.2317124246       13.3394459780
  H         5.6327150578        2.1680844782       12.5631584697
  C         4.3977483462        1.5545604368        9.5407760086
  H         3.0918825997        3.2700104601        9.4683817615
  H         4.5954609339        3.4163819714       10.5064769016
  C         5.1952360687        1.7828196524        8.2525105300
  H         3.6398156834        0.8122409011        9.4397837872
  H         5.0303887931        1.1340025653       10.3471272858
  C         6.4492910352        2.6241013381        8.5132105857
  H         4.5714521472        2.2181016126        7.4834089508
  H         5.3547449140        0.8245153864        7.7827301918
  C         7.5349595900        1.8511675586        9.1974266215
  H         6.7771548231        2.9549184234        7.5317980466
  H         6.2416328706        3.5660869923        9.0127942698
  C         8.8245105374        2.7322626075        9.4038877497
  H         7.7578099737        0.9752877746        8.5639148549
  H         7.1972697741        1.4683901247       10.1680481460
  C         8.5061623989        4.0816064942       10.0667281626
  C         9.2704115547        3.3835594451        8.1529917467
  C         9.9441075195        1.8817481324       10.1848193381
  C         8.7473127384        5.2057897108        9.2585662013
  C         7.8987927342        4.5099650140       11.2993894570
  C         9.1648981473        4.7391526739        7.9848342843
  C         9.7884462017        2.7063159136        7.0476018895
  H         9.3990010063        1.4136059710       10.9749799048
  H        10.2452593843        1.0469867441        9.4794525133
  C        11.1894518478        2.5870361537       10.7489876831
  S         8.4671117083        6.7238440637       10.0822590242
  C         7.8658212071        5.8604644436       11.3875663907
  H         7.7067103807        3.8116906209       12.0540427920
  C         9.5464827182        5.2889617152        6.7795536037
  H         9.9279525079        1.6641526381        7.1392041740
  C        10.1073516486        3.2344125819        5.8403130859
  H        10.9471871939        3.5502809026       11.1476855168
  H        11.8631129379        2.8176011779        9.8887223364
  C        11.9121037027        1.7095528195       11.7192093678
  C         7.4134844100        6.5068337352       12.6770068571
  C        10.0420734938        4.5804898266        5.6727992450
  H         9.5382179033        6.3968357508        6.6476824256
  C        10.4946078630        2.7505702158        4.6249191418
  H        12.5662072160        1.0279284488       11.1708014667
  H        11.1684283686        1.2801282120       12.3526565326
  C        12.7837865138        2.5500678841       12.6530652517
  C         7.4096186159        7.8929931321       12.9387981897
  C         7.1675764446        5.6712171466       13.8763174582
  C        10.3656276996        5.2175887542        4.3414082347
  C        10.6800858771        3.8329326377        3.7745716143
  S        10.8489952366        1.1902651804        3.9925915081
  H        13.4939876098        2.9585812953       11.8981915881
  H        12.2063177079        3.4412493893       13.0336755595
  C        13.4222379543        1.6972929920       13.7784848774
  N         7.6659227706        8.8564913378       11.9413926064
  C         7.1891819971        8.4224180782       14.1618284625
  C         6.9749710324        6.2179501488       15.1125539886
  H         7.0734616973        4.5974827795       13.7824062483
  C        11.5702465637        6.0949594662        4.3359387704
  C         9.1366410674        5.8221541599        3.5534724351
  C        11.1659138599        3.3840471282        2.5430744894
  C        11.2829487530        2.0152875183        2.4855021874
  H        14.1630548125        2.3745838853       14.2340375938
  H        13.9059639707        0.9299211670       13.2953641651
  C        12.5624533989        0.9054240101       14.8071575309
  S         7.5732768314       10.2847130627       12.7140136142
  N         6.9996221974        9.7762142898       14.1675167576
  C         6.8825531190        7.6838710199       15.3039276894
  H         6.8967801759        5.5614137783       15.8888089276
  H        11.5007620739        6.8958331352        5.0922356170
  H        11.5831915170        6.6240113519        3.3202043064
  C        12.9556854783        5.4166997536        4.6889020323
  H         8.7195112545        6.6698426211        4.0336967653
  H         9.5432061472        6.2998861544        2.5906075662
  C         8.0249188683        4.8097184651        3.1564207378
  H        11.4229994263        4.1809862950        1.8078493690
  C        11.7052753014        1.3607963407        1.1553720656
  H        11.5562380309        0.6581716925       14.4875350460
  H        13.0059241803       -0.0425636211       15.0495879636
  C        12.4630700156        1.6044778030       16.1867523465
  C         6.6653875085        8.3113868992       16.5707798114
  H        12.7539440184        4.7017359438        5.4111749576
  H        13.3181795276        5.0348221876        3.7451402036
  C        14.1275122918        6.3028474130        5.2194334091
  H         7.6369164654        4.3112898646        4.0576920122
  H         8.4493257898        4.1114296352        2.4486994839
  C         7.0338959757        5.3609065112        2.1058473310
  C        11.7819858066       -0.0200415063        1.0622995151
  C        11.9518397725        2.1730751124       -0.0802546856
  H        12.3912382916        2.6530220489       15.9980389283
  H        13.3922483707        1.4858552383       16.7012135080
  C        11.4423152724        1.0645461481       17.1770794090
  H         6.9579714867        9.3505731573       16.6395912554
  C         6.1759453590        7.8445938113       17.8307053112
  H        13.7993818862        6.8837047880        6.1320633563
  H        14.2525817521        7.1539222414        4.5097684654
  C        15.3904227081        5.4300378654        5.3272959345
  H         7.6008704191        6.0134851954        1.4300425181
  H         6.7259180301        4.5830834643        1.4175207653
  C         5.9115442526        6.1931965307        2.7169829193
  N        11.3882306233       -0.9188912253        2.0530724899
  C        12.1959792066       -0.6099709289       -0.1031834171
  C        12.2937899244        1.5269814162       -1.2823377822
  H        11.8198737970        3.2781714353       -0.0468160168
  H        11.6866331095        1.4811650752       18.2337690916
  H        11.3892031434        0.0422063464       17.1795323984
  H        10.4707827620        1.3901494809       16.9610244869
  S         5.6851034864        6.1975747797       18.2977935403
  C         6.2458486510        8.8327838889       18.9361062552
  H        15.0981348606        4.5438841999        5.9325036267
  H        15.6799411030        5.0842147902        4.3881847437
  C        16.5655117566        6.1393479325        5.9703076546
  H         6.1763792688        6.4453376839        3.7780208735
  H         5.0364442708        5.6018823362        2.8201316106
  C         5.6111506515        7.4715969697        1.9214403800
  S        11.6533122594       -2.4322470968        1.4813646511
  N        12.3469727075       -1.9564126753        0.0862578179
  C        12.4669459981        0.0913999198       -1.2962974580
  H        12.4180954745        1.9723940925       -2.2726835108
  C         5.4850128147        6.9329666653       19.8898207542
  N         5.7027385774        8.2558906736       20.0090500184
  O         6.4977924207       10.0012714188       18.8786317183
  H        16.8894256984        6.9654159291        5.3578103532
  H        16.2448771433        6.6747055784        6.8434517309
  C        17.6462727872        5.1220171469        6.2025973968
  H         6.4203827900        8.1578690863        1.7483508486
  H         5.2745076495        7.1797242287        0.9385187898
  C         4.4533596814        8.1939437881        2.5564087257
  C        12.7783756288       -0.6555127894       -2.4977937515
  S         5.1133809876        6.0125406821       21.3227698483
  C         5.7271748395        9.0449662808       21.2242482739
  H        17.1598735052        4.1634014506        6.4731617403
  H        18.0956839945        4.8110596353        5.3145847861
  C        18.7327764900        5.5953548797        7.2443898480
  H         4.3984523429        7.9140777682        3.6069103999
  H         3.6048092705        7.7296748284        2.0945480145
  C         4.5995658003        9.7534310687        2.2901578582
  H        12.4528506192       -1.6858343128       -2.3388995592
  C        13.2512471481       -0.3568494976       -3.7211489540
  H         4.9332909814        8.6403281322       21.8896185385
  H         5.4631427906       10.0395215997       21.1355576185
  C         7.1480196905        8.9930728829       21.8869732901
  H        18.7449797493        4.9939357895        8.1013203481
  H        18.3772966027        6.5333014286        7.6183357931
  C        20.1866239110        5.6957767662        6.5925499833
  H         3.9829190891       10.2168900019        3.1137805916
  H         5.5627496118       10.0866980441        2.5631121888
  C         4.2309511316       10.0970822345        0.8012356462
  S        13.7621631816        1.2537516799       -4.2782521161
  C        13.4024233921       -1.3790045782       -4.8234834000
  H         7.2175985149        9.6998816970       22.7329418746
  H         7.8671004006        9.3081192430       21.1439152671
  H         7.5386792105        8.0433895047       22.1356135737
  H        20.5278162907        4.6629912504        6.3067689112
  H        20.3579971836        6.3143980656        5.7172871133
  H        20.7615984515        6.1538920407        7.2816793898
  H         4.8781209193       10.9571561390        0.4348843389
  H         4.2354124579        9.2205078380        0.1171756246
  H         3.2517212133       10.5338717772        0.8809840419
  C        14.2514973521        0.5349112775       -5.8237426080
  N        14.0093828586       -0.8164996916       -5.8958879061
  O        13.0983369317       -2.5631116652       -4.6901765046
  S        15.0408605618        1.4948962754       -7.0873807942
  C        14.2343496848       -1.6534973108       -7.0804314704
  H        14.3069242928       -2.7268984866       -6.7690060120
  H        15.1630492043       -1.4719673831       -7.5093508930
  C        13.1763485714       -1.3140752732       -8.1230726205
  H        13.2326376327       -0.2984600606       -8.4550280282
  H        12.1784858595       -1.5579899266       -7.7794561163
  H        13.4341263329       -2.0449168435       -8.8479134828
