352
 i =    37100, time =    18550.000, E =        97.5486831629
  H        10.6171798245        4.3744521084       31.7039348543
  C        10.5914159408        5.4284050525       31.9821169790
  H         9.5649059292        5.7812291254       31.7707446894
  C        11.6000866542        6.3228019459       31.1233455858
  C        10.9602145321        5.3318455947       33.4576694964
  C        11.8324096698        5.8053521627       29.7413362094
  H        11.0366772171        7.2995208132       30.9395631139
  H        12.5143580199        6.6770716702       31.5927270571
  H        10.0717201890        5.7261730696       33.9695007193
  H        11.0860764698        4.3166009578       33.9121320691
  H        11.8534355030        5.8739645585       33.5451612001
  C        10.6252464644        5.7394014290       28.8532698060
  H        12.2191341823        4.7834778226       29.7865861626
  H        12.6368261747        6.3739887343       29.4513406809
  C        10.9553319618        5.6664194219       27.3897771292
  H        10.1747367977        4.7858694401       29.1239961010
  H         9.8844958125        6.5443659855       28.9059859347
  C         9.9582813936        4.7977181170       26.5635226650
  H        11.9444058100        5.3094206288       27.2072504615
  H        10.6769019678        6.6340283975       27.0497724265
  C         8.5919683038        5.4988386788       26.4304522178
  H        10.5561994677        4.5927844175       25.6044773544
  H         9.9601280813        3.8622626729       27.0062399930
  C         7.4947309492        4.7392592219       25.7153369606
  H         8.2570084727        5.7515855329       27.4135525659
  H         8.6458838803        6.4488906461       25.9711432989
  C         7.1640752932        3.4373637868       26.4392354095
  C         7.9759870675        4.0864060415       24.4786286527
  C         6.2472063745        5.5971567621       25.4651820227
  C         7.3669584534        2.3286465583       25.6397691100
  C         6.6336522501        3.1230653117       27.7354815451
  C         7.8608833024        2.7390041498       24.4040425866
  C         8.3638312803        4.7316613956       23.3341367855
  H         6.5001007878        6.3601526422       24.8340942662
  H         5.8444424456        6.0198758358       26.3794628126
  C         5.1027535437        4.8259049229       24.7893141903
  S         6.9553515716        0.8169320573       26.4044348568
  C         6.5975487622        1.6992924915       27.8329152319
  H         6.3609864359        3.8366775179       28.5042079031
  C         8.2192796260        2.1176748519       23.2376034132
  H         8.4683888555        5.8119804334       23.3073717306
  C         8.7256063692        4.1072061390       22.1710129514
  H         5.3712395798        4.5231200854       23.7905907854
  H         4.8144641929        3.9431502858       25.4095969332
  C         3.9194981545        5.6626511083       24.5985215783
  C         6.0622333978        0.9957248787       29.0460191295
  C         8.6954906222        2.7124265668       22.1029052826
  H         8.1734444739        1.0486487242       23.2198906792
  C         9.2302804168        4.4788428662       20.9254006970
  H         3.2628223152        5.1718471140       23.9516682210
  H         4.2637182530        6.4185975248       23.9905780469
  C         3.1096223600        6.0695189751       25.8663757440
  C         5.9991446053       -0.4278758204       29.2890885577
  C         5.5055693138        1.8584089432       30.1311800635
  C         9.2084422622        2.1169641775       20.7746318204
  C         9.4204604091        3.4265379709       20.0787619152
  S         9.4166915236        6.0446128007       20.0770677137
  H         2.4340818055        6.9223426008       25.7339056317
  H         3.7424212396        6.4944055928       26.6549438533
  C         2.2354687904        4.9734512138       26.5111402133
  N         6.2280576410       -1.4355229263       28.3205581841
  C         5.7279730171       -0.9597738132       30.5930204546
  C         5.2037968547        1.2792085436       31.3413864181
  H         5.5109681568        2.9349032050       30.0338556774
  C         8.2024190920        1.1759129467       20.0354478869
  C        10.5640504863        1.3591189319       21.0619198810
  C         9.7435590627        3.8730856729       18.8229197107
  C         9.8356456081        5.2238388461       18.6858529413
  H         1.3385471365        4.8907537926       25.8672845205
  H         2.7965183495        4.0747329748       26.5522407654
  C         1.8452774855        5.3128037389       27.9357242910
  S         6.2507922323       -2.8508382274       29.0634850787
  N         5.9015008561       -2.3789443428       30.5933024074
  C         5.4048524113       -0.1489890200       31.6748187786
  H         4.8843191293        1.9300444172       32.1647261901
  H         7.9027292921        0.4183764422       20.7677368440
  H         8.8142403412        0.6452392566       19.3337293065
  C         6.9373852514        1.9852125412       19.4082698111
  H        10.8936922842        0.7471367561       20.2447432672
  H        10.4361380185        0.8047628707       22.0346255869
  C        11.7322705081        2.3011425226       21.3200352885
  H         9.8258377466        3.1400852046       18.0823335408
  C        10.0885569217        5.9532508277       17.3580105778
  H         0.8830673924        4.9534908594       28.2609813418
  H         1.6956211543        6.4020818977       27.9280231102
  C         2.8378076894        4.8757419835       28.9928022591
  C         5.0478040817       -0.7836924394       32.8675502384
  H         7.2546941868        2.7153718051       18.6322438777
  H         6.5648385644        2.6090357627       20.2213170540
  C         5.7701024092        1.0883186540       18.9280596874
  H        11.3959787487        2.9737358347       22.0995190406
  H        12.0174684873        2.9521588751       20.4478628600
  C        12.8563640124        1.5604295350       22.1076740656
  C        10.1064398033        7.3797290507       17.1414487333
  C        10.4665424290        5.1435573195       16.1728403208
  H         3.0896710119        3.7422814419       28.8717255786
  H         3.6917055910        5.5109787625       28.7881636422
  C         2.3749786184        5.2985936413       30.3806521159
  H         5.1288207232       -1.8502714329       32.9017158928
  C         4.7762634982       -0.2342378420       34.1598904339
  H         5.6780922914        0.3006821898       19.6011311124
  H         6.2618758933        0.7020182092       18.0340430071
  C         4.3618908192        1.6888915360       18.7029036329
  H        12.5672487503        1.1324739812       23.0487100350
  H        13.0392929619        0.7183609384       21.5152779021
  C        14.1250761329        2.4211948698       22.1380143585
  N         9.7727621132        8.3922820492       18.0720750811
  C        10.3985093441        7.9017769056       15.9315768344
  C        10.6929318369        5.7186190407       14.9509887840
  H        10.4624323147        4.0502501924       16.1412526289
  H         2.3508177298        6.3604093411       30.5388423050
  H         1.2868550397        5.1113189188       30.3649199405
  H         2.8942319181        4.7709832826       31.2174355963
  S         4.6035431111        1.4259150828       34.6245764693
  C         4.7242389302       -1.2040707975       35.2229985074
  H         4.1436605602        2.3622680021       19.6134136996
  H         4.4386942678        2.2416098838       17.7689627646
  C         3.2609414961        0.6596350744       18.5557173174
  H        14.0595658355        3.4035310836       22.6101647775
  H        14.4646645743        2.5995998572       21.1183849565
  C        15.2310410439        1.6305973318       22.8675515567
  S        10.0401768898        9.8403576522       17.4439420782
  N        10.3895244114        9.3186453923       15.9184778881
  C        10.6929568552        7.1886224607       14.7645109023
  H        10.9065297058        5.0369436193       14.0557798322
  C         4.3276593967        0.7779610808       36.2001901552
  N         4.3074570183       -0.6123368334       36.3227759903
  O         5.0702752827       -2.4273655218       35.2020303619
  H         2.3122262252        1.2602327946       18.4039709614
  H         3.1880624065        0.0501798345       19.4452290283
  C         3.3949690147       -0.3019418608       17.3799999694
  H        14.9124584468        1.0080677517       23.6993916661
  H        15.5470953620        0.7955889360       22.2392210157
  C        16.3697207834        2.5598654960       23.2824971731
  C        11.0490778086        7.9403053362       13.5713590669
  S         3.9395908871        1.7558066714       37.6592459742
  C         4.0789924668       -1.4320190032       37.4942052956
  H         2.4853167487       -0.0660286611       16.7526062418
  H         4.3541302779       -0.0145397893       16.9034343688
  C         3.3104728690       -1.7721875312       17.7559463034
  H        15.8380419223        3.1753564814       23.9847270576
  H        16.7074631022        3.1682585918       22.4266517339
  C        17.5230452283        1.7497037131       23.8934330628
  H        10.7471495649        8.9837964807       13.5116510852
  C        11.5087772914        7.5254224040       12.3566840720
  H         3.2079651137       -1.0111260522       38.0323201847
  H         3.8264342154       -2.5580838370       37.3652398711
  C         5.2772044337       -1.2696743731       38.3835493495
  H         2.2624503650       -2.0663883705       17.6818176881
  H         3.6009983495       -1.8243849689       18.8205307129
  C         4.1894203181       -2.7590074300       17.0023173449
  H        17.8220528572        2.2953074254       24.8489224326
  H        17.0476674866        0.8250588257       24.1811178082
  C        18.6004949069        1.5608168719       22.8607884369
  S        12.0446570468        5.9386954496       11.9861573093
  C        11.6052202092        8.6302789826       11.3019430395
  H         6.2376976984       -0.9693475220       37.8737481839
  H         5.0807509442       -0.4465073277       39.0559587266
  H         5.4699272805       -2.1565885364       38.9776907628
  H         5.2450525008       -2.2762783576       17.0497640858
  H         3.8276327213       -2.8215461715       15.9895569159
  H         4.1174411021       -3.7089307118       17.4875003952
  H        19.3909937615        0.9276935705       23.2828346463
  H        19.0381511364        2.3427669939       22.4484777380
  H        18.2439640457        0.9188608001       22.0273745009
  C        12.3266441969        6.6992315448       10.3528230904
  N        12.1977723893        8.0451072269       10.2494140778
  O        11.4000076289        9.8417168756       11.3869560037
  S        13.0126687769        5.8562409670        8.9754617304
  C        12.2547249205        8.7460949268        8.9644099928
  H        12.5533782085        9.7083646592        9.2340412706
  H        13.0456488708        8.4403041678        8.2684755023
  C        10.9684902656        8.8699129084        8.1963660564
  H        10.4515972243        9.7719501002        8.6245134827
  H        11.0905005968        9.0590337845        7.1407479758
  H        10.3002513837        8.0617218378        8.3887520036
  H         2.5846219973        0.8567370108       13.1800655738
  C         3.5376415044        1.3554920083       13.0486492945
  H         4.2465098155        0.5763765147       12.6714959642
  C         3.1775357386        2.3991590411       12.0016409267
  C         4.0716525781        2.0200393541       14.3428188239
  C         4.4056763935        2.5154085238       11.0730310225
  H         2.8983374042        3.3260346675       12.4777482579
  H         2.2087216751        1.9824682078       11.5344602292
  H         4.5071956279        1.2896159479       15.0278834800
  H         3.2574811725        2.5797696886       14.8429627262
  H         4.8867692313        2.6038271760       14.0681884317
  C         4.7634525142        1.1881363284       10.3067505869
  H         4.1809659787        3.2042971073       10.2381051046
  H         5.2647135624        2.9139615713       11.5857817212
  C         5.0408025357        1.3522401480        8.8071185401
  H         4.0323725927        0.4347848404       10.3166382864
  H         5.6703542234        0.7738709742       10.7052443109
  C         6.2239694147        2.2356882156        8.4570604993
  H         4.1216524239        1.8604083981        8.4925361370
  H         5.1236217598        0.4555197685        8.1653557122
  C         7.4940058048        1.5014312123        8.7836330381
  H         6.1648118117        2.4470229033        7.4376272604
  H         6.1697236749        3.0438320492        9.1113902555
  C         8.7979733786        2.4113629673        9.0382302851
  H         7.7615948368        0.7453868396        8.0444218424
  H         7.4930393890        0.8570212480        9.5942922770
  C         8.5207415009        3.7478273216        9.7994792279
  C         9.3012531465        3.1018444796        7.8557795376
  C         9.9505742840        1.6751689734        9.8154780225
  C         8.7819785302        4.8532735599        9.0267167877
  C         8.0488432613        4.1384562808       11.0981813499
  C         9.2392771623        4.4601186122        7.7872299404
  C         9.8815363992        2.5631284229        6.7038824313
  H         9.5134923271        1.2064547659       10.6577465216
  H        10.2549839249        0.8237769794        9.1983416686
  C        11.1642795805        2.5273393619       10.1917560807
  S         8.3900997702        6.3322612295        9.7817090654
  C         8.0043776347        5.4736195207       11.2076619500
  H         7.7951498646        3.3436099558       11.7835449991
  C         9.5476891191        5.0680639245        6.5958981297
  H         9.8725698303        1.4996964649        6.7222100757
  C        10.2040311246        3.1596714744        5.5130514016
  H        10.9324285900        3.3266202799       10.9330496141
  H        11.6912891050        2.9703309640        9.3449728644
  C        12.2289470029        1.7326133699       10.8917510951
  C         7.5776441864        6.1321326725       12.4986068545
  C        10.0903092571        4.5024745207        5.4745952941
  H         9.4182544992        6.1369364846        6.5091105329
  C        10.5995769482        2.8448221747        4.2436519471
  H        13.0754631888        2.4102072649       10.8527966999
  H        12.5901773060        0.8180381464       10.3313926944
  C        11.8895492425        1.3328231956       12.3450627473
  C         7.6558439529        7.5016607031       12.7414632412
  C         7.2072765051        5.2838987954       13.6917274912
  C        10.3788073585        5.2302681798        4.2113560911
  C        10.8179518679        3.9618026285        3.4578629968
  S        10.8917791902        1.3479000328        3.4079389928
  H        11.1103078904        2.0721270619       12.7165242432
  H        11.5586289298        0.3195796120       12.2866825369
  C        13.0590268554        1.5116552494       13.2740202930
  N         7.9133837721        8.4835038064       11.7860869151
  C         7.3983890714        8.0284492558       14.0097170428
  C         7.0633269066        5.8148864150       14.9485598729
  H         7.2187422072        4.1927033919       13.6383505425
  C        11.4938419883        6.2947878492        4.3863902041
  C         9.1750493098        6.0017108249        3.5265445023
  C        11.3799220060        3.6006631451        2.1997286940
  C        11.3723182548        2.2257802897        2.0245536930
  H        13.3745582850        2.5913566076       13.4706600905
  H        13.9296194289        1.0779201943       12.7759030322
  C        12.9521811443        0.8906300114       14.6920342421
  S         7.9475720797        9.9104472805       12.6101677967
  N         7.5597186033        9.3873850900       14.1010602513
  C         7.1231350967        7.2634144012       15.1761557368
  H         6.8007931030        5.1645198043       15.7080161248
  H        11.3067926159        7.0273865461        5.1368699998
  H        11.8383880285        6.8163280284        3.5226125476
  C        12.7398421637        5.7419259549        5.0360486637
  H         8.6288254501        6.6126434355        4.3089630018
  H         9.5920688066        6.7475222347        2.8644496436
  C         8.1413483500        5.2137149778        2.7162858562
  H        11.5909054595        4.4605462660        1.5581620619
  C        11.8088435860        1.5558235075        0.7752945518
  H        12.2726643966        0.0435901866       14.5986366739
  H        13.8954550024        0.4430914288       14.8476829536
  C        12.7844281652        1.8549204222       15.8753193008
  C         6.8493363387        7.9176107123       16.4291318858
  H        12.5547346025        5.5445632588        6.0932588017
  H        13.0222211851        4.7780907527        4.5579510030
  C        13.9759451522        6.6913904189        5.0678775396
  H         7.8350003492        4.4941000428        3.4819370613
  H         8.6109263571        4.5930539821        1.9158687653
  C         6.9645868086        6.0384173184        2.1863365915
  C        11.8774364953        0.1415328537        0.5594489988
  C        12.2316658384        2.4384995342       -0.3216299504
  H        12.1522448343        2.6861458812       15.4342476159
  H        13.7475013859        2.2917297412       16.1468138789
  C        12.2737415613        1.2381130709       17.2101148393
  H         6.9327163656        9.0012872173       16.4752901829
  C         6.5204855156        7.4784260553       17.7070962926
  H        13.7402836362        7.6465044309        5.5271591680
  H        14.3851992328        6.8630371195        4.0666529828
  C        15.0530907016        5.9902687059        5.8169609451
  H         6.8742969639        6.9517059063        2.6928239619
  H         7.0567212259        6.2854400740        1.1236407290
  C         5.6331577163        5.3116476568        2.4043660161
  N        11.6024379632       -0.8155119426        1.5107220925
  C        12.2039335950       -0.3109545098       -0.6984955062
  C        12.5309132476        1.8552602896       -1.5735550402
  H        12.1569674115        3.4564538918       -0.2828941939
  H        12.4740156427        2.0464547285       17.9598924311
  H        12.7521458633        0.2731041272       17.3925632307
  H        11.1733707145        1.1986762048       17.0940494904
  S         6.3279629217        5.8353232889       18.2146918861
  C         6.3144553087        8.5057698749       18.7624362560
  H        14.8263805550        6.1853184297        6.8525154385
  H        14.9421481655        4.9341227178        5.6129213323
  C        16.5135247367        6.2804595093        5.5661888260
  H         5.4361770682        5.2372647149        3.4430889110
  H         5.7689155907        4.2904237656        2.0899469308
  C         4.5186332250        5.9238399039        1.6474767484
  S        11.5782999787       -2.2118821943        0.7279013369
  N        12.2754030871       -1.7380957725       -0.6969111973
  C        12.6032517517        0.4308277375       -1.7810330330
  H        12.5898373558        2.5585983227       -2.4127340202
  C         6.0789849825        6.5238249770       19.8122474271
  N         6.1187451464        7.8550581011       19.9275997569
  O         6.5739825172        9.7269517951       18.5772415973
  H        16.8525364043        5.6964680987        4.6720329780
  H        16.8256460875        7.2841406224        5.4507676081
  C        17.3330872199        5.7807555275        6.7919690902
  H         4.8312524896        6.0989695256        0.6324359660
  H         3.6381191589        5.2443011519        1.6388661555
  C         4.0632359535        7.2306898423        2.2547680153
  C        12.7214037133       -0.2743986092       -3.0521562512
  S         5.8379186636        5.5850996408       21.3025819307
  C         6.0634278184        8.5985895693       21.1761647181
  H        17.3054400073        6.6681970519        7.4622592842
  H        16.6562710217        5.0849071978        7.3472722374
  C        18.6672625476        5.1805207498        6.5968292690
  H         4.3431123959        7.3252857731        3.3528004000
  H         2.9958662009        7.1168435780        2.2801658719
  C         4.3892974504        8.4964313714        1.4974614689
  H        12.1224941932       -1.2023853309       -3.0910182904
  C        13.3039119047        0.1260281246       -4.2621314027
  H         5.2623432372        8.3175616460       21.8411302338
  H         5.8915466800        9.5752425621       20.8180429504
  C         7.4839399250        8.5475860282       21.8023116105
  H        19.0358743262        5.1144024760        5.5496122297
  H        18.6880669145        4.1204165232        6.9292391416
  C        19.6622998514        5.9274431829        7.4352370367
  H         4.0989501195        9.3363321326        2.0967382244
  H         5.4359846853        8.5724313303        1.2245909241
  C         3.6639189163        8.7346164517        0.2140277123
  S        14.2319108569        1.5600824527       -4.4184411112
  C        13.2620759016       -0.8196671565       -5.3553701864
  H         7.6610574617        7.5774589900       22.1920937004
  H         7.5631313500        9.2632369680       22.6335420602
  H         8.2326147315        8.8129181856       21.0720325871
  H        20.6042302800        5.6399431609        6.9906246478
  H        19.5027626510        6.9909623582        7.5957939625
  H        19.7952664127        5.6263570423        8.4822326150
  H         3.4345505618        7.7392612145       -0.2065549476
  H         2.6398161617        9.1895274224        0.3293630142
  H         4.2271323992        9.3492445195       -0.4682929950
  C        14.5180218340        0.9087535736       -6.0119337809
  N        14.1001049905       -0.3527724172       -6.2814022622
  O        12.6988087800       -1.8949857333       -5.1959172297
  S        15.5813326155        1.6924431389       -7.1633797177
  C        14.3902298849       -1.0295378157       -7.5583377880
  H        14.6195162362       -2.0856935508       -7.2899522568
  H        15.2380773637       -0.7197182134       -8.1202313371
  C        13.2357231672       -1.0700530545       -8.5300419749
  H        13.0778844000       -0.1768340111       -9.1567937772
  H        12.3110275754       -1.3171918190       -8.0174629290
  H        13.4989731480       -1.8970200539       -9.1429243379
