352
 i =     3900, time =     1950.000, E =       195.0407216016
  H        11.5211830897        7.1211941423       32.6180481167
  C        11.4752306831        6.1707073415       32.0502485816
  H        12.4742271065        6.0772934594       31.6888716910
  C        10.5405343071        6.3638006002       30.8906178274
  C        11.0928179524        5.0001481076       32.9959722276
  C        11.1786151895        6.0264981052       29.5559609826
  H         9.4860761433        5.8618634659       30.9582054588
  H        10.2197201890        7.3377642142       30.6477064796
  H        11.6937196477        4.1313285580       33.0305284422
  H        11.1485471513        5.3336636314       34.0395340043
  H        10.1421351722        4.7269377883       32.7824596892
  C        10.1508114989        5.5138130138       28.5732350759
  H        11.8866253082        5.1003465453       29.9114746595
  H        11.9332368825        6.7662618678       29.2761821066
  C        10.7597800122        5.1592921787       27.1810556855
  H         9.7256317623        4.8182967194       29.0947657694
  H         9.2951674502        6.1999755439       28.3822608611
  C         9.5425662383        4.4919896648       26.3892452632
  H        11.5529013089        4.4199918045       27.1937933022
  H        10.9636530997        6.0204760088       26.6262084030
  C         8.4172564952        5.3726360955       25.7384294527
  H        10.0762950035        3.9051242093       25.6635201557
  H         8.9501658226        3.7996255340       26.9663711863
  C         7.2120761274        4.7567516167       25.0973093883
  H         7.9181687686        5.9368235916       26.6197884105
  H         8.8267035528        6.2068053250       25.0563529569
  C         6.8824678858        3.4679498810       25.8361190558
  C         7.6058174117        4.0298575968       23.9527806036
  C         5.9080792019        5.6522025652       24.8686047859
  C         7.1313637152        2.3256687368       25.1149102109
  C         6.3005241109        3.0995956908       27.1459994185
  C         7.5976120856        2.6414815016       23.8851914791
  C         8.0842368354        4.5643669571       22.7778113171
  H         6.1191357297        6.4884430004       24.1852433802
  H         5.6636432262        6.2456665438       25.6504705170
  C         4.7905455094        4.9155265882       24.2419242451
  S         6.5852348860        0.8821591007       25.9145614934
  C         6.1546251196        1.7861970509       27.3209447334
  H         5.9244718471        3.8658705014       27.7171211293
  C         7.9811861329        1.9313628605       22.7647977087
  H         8.1325972877        5.6136833455       22.7445250560
  C         8.4564540948        3.8945271200       21.6613096792
  H         5.0824052967        4.5114955946       23.2831965907
  H         4.5094177834        3.9972666748       24.8882610545
  C         3.5053292638        5.8185300858       24.0667473717
  C         5.7118207456        1.0830770244       28.5655353039
  C         8.4691159752        2.5490716695       21.5783275225
  H         7.8414168259        0.9356927920       22.7704745346
  C         8.7866709451        4.2957219169       20.4105376786
  H         2.6611478365        5.3448659602       23.5523631932
  H         3.7919284702        6.7043008012       23.5890447313
  C         2.7588640566        6.0813914405       25.4180437957
  C         5.6909363389       -0.3231525431       28.8219181890
  C         5.3297390621        1.9561325518       29.7366240970
  C         8.8020781309        1.8441449857       20.2216725869
  C         9.0572727502        3.2379578559       19.5871147314
  S         9.1927302668        5.7825901949       19.6891835015
  H         2.0919489023        6.9777800936       25.1532445983
  H         3.4199931280        6.6737672099       26.1009996346
  C         1.8656117364        4.9654641938       26.0693311897
  N         6.0438434326       -1.2939441121       27.9579455940
  C         5.3755977091       -0.8602749783       30.0690536361
  C         4.9505729747        1.3472540397       30.9397919422
  H         5.0018979537        2.9897803752       29.6613915945
  C         7.5927817087        0.9259075973       19.7988569579
  C        10.2771284119        1.1541661148       20.3092330487
  C         9.4058121749        3.6974672867       18.2417309440
  C         9.5065202199        5.0616426183       18.1342815269
  H         1.1350515531        4.8432501388       25.3109111521
  H         2.2467290201        3.9180686642       25.9142246427
  C         1.4428145914        5.3216566696       27.4556839344
  S         5.8379954238       -2.7558260266       28.7396133093
  N         5.3713969010       -2.1827598982       30.1643440853
  C         4.9839534011       -0.0510898007       31.2317251294
  H         4.3650271968        1.9795958136       31.6472433245
  H         7.2068816119        0.3883354768       20.7027375410
  H         7.9231545190        0.2127787084       19.0689841106
  C         6.5447562991        1.7006387607       19.1274068620
  H        10.3804009991        0.8747618333       19.2333950979
  H        10.2398976468        0.2916625290       20.9838179832
  C        11.4477992978        1.9990125379       20.7194348492
  H         9.5553207686        2.9616302313       17.5656238056
  C         9.9043789116        5.8868663559       16.9511653213
  H         0.5940389134        4.6715528230       27.7499445958
  H         0.8570129444        6.2395380073       27.4355966739
  C         2.6336844526        5.5098024643       28.4581303026
  C         4.8753070465       -0.7192951516       32.5338180584
  H         6.8393805525        2.1303524580       18.1464715791
  H         6.2411905128        2.5116354563       19.8427030101
  C         5.2259526245        0.9654575758       18.7457195628
  H        11.1955159225        2.5293146066       21.6801622907
  H        11.7353024700        2.8089948667       20.0840408099
  C        12.6070382541        1.1109716534       21.2263367201
  C         9.8428410426        7.3142646110       16.9225271532
  C         9.8825822046        5.2706043243       15.6688271742
  H         3.1026930529        4.6005987869       28.5157958976
  H         3.3554054935        6.1843929849       28.3107949748
  C         2.2140222387        5.7105336749       29.8882695666
  H         5.1388985303       -1.7362195858       32.4486605392
  C         4.6390439431       -0.2035788950       33.7964848702
  H         4.6262100636        0.7661994317       19.5447593989
  H         5.5064513182       -0.0212522537       18.3976069765
  C         4.3527078145        1.7643476133       17.8141865676
  H        12.3056628312        0.8380682946       22.2679752417
  H        12.6866816068        0.1746189909       20.6365298959
  C        13.8362590772        1.9869151465       21.2760607837
  N         9.6777684711        8.1776248192       18.0220808277
  C        10.0815448864        8.0441169803       15.7341987805
  C        10.1273245811        5.9333606716       14.4904620671
  H        10.0276471605        4.2047074937       15.5979011816
  H         1.8165358794        4.8573767666       30.4128886712
  H         3.1192338570        6.0571204029       30.4913983562
  H         1.4551862945        6.4965112682       30.0753327668
  S         4.3723331075        1.4560594325       34.1870244866
  C         4.7623373886       -1.1509802812       34.9568452267
  H         4.2527143441        2.8428559238       18.1121293682
  H         4.7342737710        1.8356778740       16.7962604080
  C         2.9142116140        1.2846343028       17.7380929433
  H        13.5982191704        3.0463253399       21.2136027558
  H        14.5651302440        1.6865564524       20.4788398767
  C        14.3490725887        1.9742841402       22.7301568135
  S         9.8129540729        9.6596279301       17.4250382009
  N        10.0543804370        9.4188192231       15.8450138305
  C        10.2903785309        7.4353266699       14.4388046989
  H        10.2384670325        5.4482039782       13.6004216751
  C         4.2765845728        0.8996012629       35.8616964990
  N         4.5280235382       -0.4243249712       36.0699177441
  O         4.9914215628       -2.3703706829       34.9029110331
  H         2.1931273593        1.9709575812       17.3649473317
  H         2.5091179724        1.0669205839       18.7866651727
  C         2.8058840317       -0.0841858727       17.0285402384
  H        13.7812289213        2.3373154909       23.6227498778
  H        14.4456535822        0.9394053900       22.8802177311
  C        15.6837070045        2.6957181241       22.7106159079
  C        10.6187760923        8.2392894018       13.2694875248
  S         3.8892657396        1.8750750527       37.2530879094
  C         4.5392908051       -1.0887789480       37.3424593493
  H         2.0498928637        0.0531020520       16.1760882779
  H         3.8255659848       -0.3737859411       16.5917005536
  C         2.2182043238       -1.2707577723       17.8183654036
  H        15.4037306573        3.5831802016       23.1805916399
  H        15.9291583030        3.1115358656       21.7844933345
  C        16.9008955729        1.9517694233       23.4025940303
  H        10.4176313490        9.2526362264       13.4639673400
  C        11.0809265543        7.9512448394       12.0455969169
  H         3.6644615411       -0.7783826501       37.9259656499
  H         4.6091313836       -2.1318332590       37.1210104785
  C         5.7802689892       -0.8541564183       38.0964767986
  H         1.2781047256       -1.0607695806       18.2631438943
  H         2.8944161651       -1.4612362466       18.7046145258
  C         2.1927830194       -2.5281142753       17.0496157431
  H        17.4708183971        2.6095372693       24.0993483631
  H        16.5579676257        1.0950891565       24.0469396261
  C        17.8460687984        1.2096174013       22.4994763047
  S        11.7416331630        6.4683960820       11.6364438787
  C        11.2684379651        9.0733273561       11.1764879549
  H         5.5564244547       -0.6972156802       39.0981492562
  H         6.4373432294       -1.7166082929       37.9382778894
  H         6.2001860369        0.0776567206       37.6739257741
  H         1.9729062198       -3.2977213665       17.8022054220
  H         3.1799767517       -2.8704935754       16.7497547855
  H         1.4704109046       -2.5920818568       16.2611060274
  H        18.2383834612        1.7953506927       21.7422969054
  H        17.2807625816        0.4183834316       21.9349457917
  H        18.7243582358        0.7352114254       22.9488566252
  C        12.1762208363        7.2723299357       10.1944415853
  N        11.8711138235        8.6539145384       10.0627532326
  O        11.0337159662       10.2614200534       11.3965438336
  S        12.8419678103        6.5052524232        8.7751205899
  C        12.1544179442        9.4349938510        8.9164195044
  H        12.3115088771       10.3642211863        9.3214198211
  H        13.1373568733        9.1138137735        8.4908144968
  C        10.9597629716        9.6407044619        8.0795180549
  H         9.9823380379        9.6925629942        8.5045415752
  H        11.1444803499       10.3538749791        7.2619658799
  H        10.9105296690        8.6870581895        7.4987509397
  H         4.5716505880        1.3747018405       12.4958404359
  C         3.9625918958        2.3087618326       12.5557662829
  H         4.5528735150        3.1009634560       12.8667632571
  C         3.3122253593        2.3066553464       11.1645346715
  C         2.9633911296        2.1903157012       13.7131165654
  C         4.2694381214        2.7943596719        9.9379517252
  H         2.4667100372        3.1157746986       11.1320765320
  H         2.7878470548        1.3472902539       10.8340026288
  H         2.1978903746        1.4534640768       13.5300265070
  H         2.3704641552        3.0933247419       13.8210465578
  H         3.5350475723        1.9480516244       14.6496625399
  C         4.7654422920        1.5878105269        9.1983865377
  H         3.8215784279        3.6685013201        9.3754989557
  H         5.0395558340        3.2460968863       10.5084263213
  C         5.4750115914        1.8980639039        7.9350392586
  H         3.8246708555        1.0107365219        8.9684004675
  H         5.3836090843        0.9224989828        9.8529243392
  C         6.6707226473        2.8829856898        8.1243097903
  H         4.9264106418        2.4206199302        7.2118513929
  H         5.5957317686        0.9887753753        7.3822012254
  C         7.8370193155        2.0252139317        8.6731554672
  H         7.1341939648        3.1537160860        7.2272572381
  H         6.3704300379        3.7494940476        8.7863339225
  C         9.0859004269        2.9451385299        8.8736892087
  H         8.0530215485        1.2821792782        7.8671014783
  H         7.5302207571        1.5448291722        9.6228628829
  C         8.6018139315        4.2552992533        9.5372564993
  C         9.5279483842        3.6638748451        7.5735970026
  C        10.3134821584        2.2911231932        9.4735710916
  C         8.7328483141        5.3792711714        8.7131485848
  C         7.9977477074        4.5498555000       10.8427233370
  C         9.3697366968        5.0138317377        7.4392237837
  C        10.0770131982        3.0426766458        6.4593068187
  H         9.9078088225        1.7465380754       10.2075200687
  H        10.6499369155        1.5165292781        8.7928383219
  C        11.4874308962        3.0722960267        9.9019868670
  S         8.3724499888        6.8240206109        9.5964569910
  C         7.8865743357        5.8815970029       11.0354688210
  H         7.8298255318        3.7443679072       11.4898436797
  C         9.7534937875        5.6155471144        6.2725344456
  H        10.2169446844        2.0509739293        6.5907275372
  C        10.4673142719        3.7020994393        5.2803982254
  H        11.1232848856        4.0702456869       10.2713637907
  H        11.9863404442        3.4217918690        9.0866192056
  C        12.3904097972        2.3572405016       10.8692682731
  C         7.5286147667        6.5162979175       12.2787071654
  C        10.3422635689        5.0488645639        5.1422467746
  H         9.5960313609        6.6939524529        6.3552711208
  C        10.8709330711        3.2439972856        4.0911583225
  H        13.3603470428        2.7199033825       10.6710998200
  H        12.6149628416        1.3564664474       10.6961646580
  C        12.0908111436        2.6484173469       12.3113841118
  C         7.5191451807        7.8867919078       12.5954797480
  C         7.1197371707        5.6836394953       13.3707196210
  C        10.7008694170        5.7224173957        3.9253625917
  C        11.0226434656        4.3679824848        3.2534590522
  S        11.1476586525        1.7948516553        3.2250298458
  H        11.9224035996        3.7310196456       12.6162032505
  H        11.1207681352        2.3513607003       12.5541312612
  C        13.1619556934        2.2263450522       13.3415299995
  N         7.7936640517        8.9238785485       11.7292409003
  C         7.1767549047        8.4557506630       13.8365124478
  C         6.7968181439        6.1706896009       14.6299182139
  H         6.7902903160        4.6809768798       13.3112796143
  C        12.0607261095        6.5611235692        4.0239687722
  C         9.5330001309        6.5083199858        3.2731671987
  C        11.4326561026        4.0032937249        1.9225829104
  C        11.4919878927        2.6230239761        1.7860505456
  H        13.9457949925        2.9599661307       13.4714792899
  H        13.7266138544        1.2815217369       13.0531646843
  C        12.4641604928        2.0170163793       14.6785725965
  S         7.8095235712       10.3826395718       12.4525025270
  N         7.3185230987        9.8523895906       13.9121697396
  C         6.7335159375        7.5996736344       14.9159091312
  H         6.5104775814        5.6184607884       15.4315222693
  H        11.7841744209        7.2948096725        4.6307052003
  H        12.2670781861        7.0892580138        3.1089868706
  C        13.3078498414        5.8395787135        4.4995736466
  H         9.0678029428        7.1464085131        4.0535027694
  H         9.9637943706        7.2545001825        2.6822619661
  C         8.5044450896        5.6356749933        2.6021202440
  H        11.5996329099        4.8342292823        1.1939810506
  C        11.7300672762        1.8458159982        0.6345848351
  H        12.0789208421        2.9560916914       14.9153081273
  H        11.7279214869        1.2556398981       14.7089373441
  C        13.4542757264        1.8003959243       15.9206050805
  C         6.5814444432        8.2236276601       16.2297907574
  H        13.2136836390        5.3388916720        5.5724692415
  H        13.6953037480        5.1954274980        3.7714587972
  C        14.4625739004        6.8726319584        4.7190249213
  H         7.9643544879        4.9726534425        3.2503075315
  H         9.0332998985        5.0079645554        1.8862988208
  C         7.5649153123        6.6871306283        1.9362149595
  C        11.8821013005        0.4645007655        0.4873332705
  C        11.8533312579        2.6420618114       -0.6162681360
  H        14.4089210245        2.2682090137       15.6970531992
  H        13.6469898340        0.6884479097       15.9540504005
  C        12.8376970584        2.2196859418       17.2761454264
  H         6.4042617345        9.2538066554       16.1093228007
  C         6.3280666285        7.7246077456       17.5014519656
  H        14.0883558734        7.5781611247        5.3457518796
  H        14.6038136949        7.3481543237        3.7872126588
  C        15.7327355036        6.1635881379        5.1421629208
  H         6.9862518705        7.2058986104        2.7602669016
  H         8.2043456175        7.4065840241        1.5036340621
  C         6.5095153686        6.0508386182        0.9390026780
  N        11.7087100660       -0.4647775700        1.4777711113
  C        12.1181034724       -0.1662288291       -0.7271143716
  C        12.2019738649        2.0337406698       -1.8093543492
  H        11.7868735690        3.7875392649       -0.5892453811
  H        11.8060442300        1.9060190299       17.1744788932
  H        12.8939397661        3.2406756308       17.5059336009
  H        13.4653275159        1.5848513337       17.9284982503
  S         6.0907291135        6.1052616871       17.9507331968
  C         6.1545148881        8.7619440536       18.6063714477
  H        16.0423122619        5.1798108453        4.6990755214
  H        16.5350463186        6.7910102730        4.9807795709
  C        15.9022664287        6.0987190253        6.5713941232
  H         6.4076608002        5.0564102814        1.3498968906
  H         7.0139482905        5.9029002613       -0.0090868219
  C         5.0924229379        6.6866736675        0.9968418588
  S        11.8315197468       -1.9509952526        0.9327187686
  N        12.2636916639       -1.5487363157       -0.5504615169
  C        12.3321012633        0.5784083947       -1.9219449532
  H        12.2542754306        2.7182512307       -2.7120525795
  C         5.9179619264        6.7700801138       19.5732911608
  N         5.9833206504        8.1716002204       19.7863252249
  O         6.3886830416        9.9254146848       18.4147306782
  H        16.0364909410        7.1300564017        6.9838891566
  H        15.0389546229        5.6187167035        7.0319518770
  C        17.1050673517        5.1580894972        6.9951469716
  H         4.5312808238        6.3224705661        0.2075150217
  H         4.5779992945        6.3085388177        1.8863722298
  C         5.0170601392        8.2620876024        1.0072500340
  C        12.6823866094       -0.3264600646       -3.0522010200
  S         5.5781373029        5.7921956564       20.9962180247
  C         5.8005925949        8.8116853238       21.0708086675
  H        16.8703290332        4.7751745080        7.9117899297
  H        17.2288966506        4.3231499107        6.3075749316
  C        18.3537631360        5.9188205891        7.3079645376
  H         5.7520176353        8.4780877004        0.2499977295
  H         5.4259254464        8.5037588082        1.8399155811
  C         3.5990583740        8.7912451225        0.8751936599
  H        12.6051746749       -1.3813468710       -3.0169933168
  C        13.2797044331        0.0063380149       -4.3395136817
  H         5.0123524125        8.5197986813       21.8442878062
  H         5.4565641725        9.8230019440       20.8355055074
  C         7.1682807852        8.8007769792       21.7709968661
  H        18.8723220969        5.4926990731        8.1887200213
  H        18.0642568709        6.9632495014        7.3364303405
  C        19.2662405709        6.1746780232        6.1039088697
  H         3.3345268461        8.6254463906       -0.0970325203
  H         2.9618101834        8.3040931633        1.6149896219
  C         3.5619182224       10.2699938825        1.1840432287
  S        14.0110082651        1.5678388097       -4.7152641249
  C        13.3881828197       -1.0240597361       -5.2958349191
  H         7.2259702771        8.8490641237       22.8697876165
  H         7.8294211277        9.4969035501       21.3580525030
  H         7.7000278788        7.7600824955       21.7793871532
  H        18.8634826229        6.9713130290        5.3285850679
  H        20.3130080717        6.4318853759        6.3202047357
  H        19.4483987169        5.2099460332        5.4988353994
  H         3.1100985716       10.4450106705        2.1752705375
  H         4.5102274955       10.7827838352        1.3116344397
  H         3.0047057226       10.8984465801        0.4751402126
  C        14.2951326506        0.7782534550       -6.3383066648
  N        13.8771112720       -0.4243088561       -6.4963322532
  O        13.1336011928       -2.2170348148       -5.1449429355
  S        14.9869676806        1.6840019646       -7.6660511895
  C        14.0890465097       -1.3385540006       -7.6338294309
  H        14.8083987746       -2.1658421052       -7.2390629248
  H        14.6674100004       -0.8763091740       -8.3901999608
  C        12.9068873549       -2.0956632254       -8.1961229276
  H        13.2625448583       -3.1341125607       -7.9402584048
  H        12.7619724293       -1.8623462761       -9.2337928801
  H        12.0180030821       -1.6324401587       -7.6492103668
