352
 i =   126000, time =    63000.000, E =        99.2005795305
  H        10.2114910286        6.7270476193       33.3010576799
  C        11.1950027673        6.5323071502       32.8953736440
  H        11.8223936452        7.2277248319       33.4658053579
  C        11.3520565328        6.8054652194       31.3668074141
  C        11.5698251462        5.0951202832       33.2846121313
  C        11.0708200980        5.6745752598       30.4066536292
  H        10.6287396780        7.5809123739       31.1432485831
  H        12.3652291672        7.1461032955       31.2316847634
  H        10.7635146564        4.4803539434       32.9181278993
  H        12.5078792112        4.7151905233       32.8987491411
  H        11.5291652447        4.9182910680       34.3736202160
  C        11.5037889073        5.8907087360       28.9054157649
  H        10.0213792687        5.4455731882       30.3182080981
  H        11.5350771694        4.7680204645       30.7832073354
  C        10.4800986456        6.4539193581       27.9604522546
  H        12.3662471028        6.5955058178       28.8742452358
  H        11.9723530976        4.9686161002       28.5623281225
  C         9.6618243931        5.4293069002       27.2084487732
  H        11.0066961858        7.0557587718       27.2666751121
  H         9.9050776607        7.1945936727       28.5972093108
  C         8.8160827798        6.1282590679       26.1494501942
  H        10.3965025777        4.6942260104       26.8719462625
  H         9.0569622068        4.8124421794       27.8380363071
  C         7.5622831575        5.2855832044       25.4830644031
  H         8.3920637071        7.0159558777       26.5427256000
  H         9.4637383348        6.4928224990       25.3127492529
  C         7.2192513251        3.9787888938       26.2437466989
  C         7.9753698404        4.4985632241       24.3107114953
  C         6.3744572451        6.2598242742       25.3413096274
  C         7.4759559141        2.8406918032       25.4825358307
  C         6.6370279167        3.6333196841       27.5037270651
  C         7.9095311933        3.1809989476       24.2406287592
  C         8.3802024429        5.0981221773       23.1488865955
  H         6.7874605188        7.1470225837       24.8291408011
  H         6.1498475136        6.4549461626       26.3667510446
  C         5.1670931603        5.5615826257       24.7180588412
  S         7.0152038377        1.3030068127       26.2567283133
  C         6.5157180742        2.2797077930       27.6707789582
  H         6.3955429693        4.4138781272       28.1944788941
  C         8.2464229599        2.5038882389       23.0999888417
  H         8.4943864672        6.1823804964       23.2670360720
  C         8.7117404679        4.4233966039       22.0283366819
  H         5.4455541393        5.0594197915       23.7734057012
  H         4.8843615358        4.7605914651       25.3055300539
  C         3.8913452927        6.3727619510       24.4733838877
  C         6.0769706038        1.6181211184       28.9482610897
  C         8.6249911711        3.1163606706       21.9173864356
  H         8.1587348556        1.4781216000       23.1976531619
  C         9.2076716235        4.7665774593       20.7734867349
  H         3.2378767852        5.7779987198       23.8436088402
  H         4.2045510109        7.2450740288       23.9322335324
  C         3.0911182003        6.8396374317       25.7494566049
  C         6.0733291457        0.1976724532       29.2062732179
  C         5.6812003221        2.4865458664       30.0556736690
  C         8.9466766254        2.3684289374       20.6334124814
  C         9.2199753613        3.7043242813       19.8998227132
  S         9.4657942096        6.3155476483       20.0553144012
  H         2.5082837929        7.6810380758       25.4037183009
  H         3.8268597620        7.2333591947       26.4090937446
  C         2.1196124944        5.7881648940       26.2268091299
  N         6.4473606816       -0.8049794132       28.2722574422
  C         5.6731012268       -0.2904815408       30.4039346511
  C         5.4244861457        1.9333827101       31.2952961407
  H         5.3259659959        3.5026321224       30.0043603942
  C         7.6469081876        1.5441936085       20.2228769425
  C        10.2240045236        1.4880644310       20.7259501442
  C         9.5938139735        4.1149036826       18.6448381981
  C         9.6676320633        5.4440971860       18.5764519973
  H         1.4012018960        5.4913654207       25.4112134349
  H         2.6715650908        4.8949679966       26.5056775976
  C         1.5340328371        6.2874393887       27.5612267586
  S         6.4184488769       -2.2351544667       29.0218700934
  N         5.7591620770       -1.6679077218       30.4048873154
  C         5.4151782066        0.4509480563       31.5726481079
  H         5.0941698337        2.5196937688       32.1160476413
  H         7.1551832519        1.2124679227       21.1086169786
  H         7.9732193772        0.6441681535       19.7236286833
  C         6.7645322767        2.4314469859       19.3704945576
  H        10.4162368094        1.0122503361       19.8060564365
  H         9.9598980962        0.6248881308       21.4095661407
  C        11.5246609843        2.2245765328       21.1837256884
  H         9.6936070061        3.2938417455       17.9035908105
  C        10.0770692365        6.1948078317       17.2911724393
  H         0.6418113655        6.8411193832       27.3325577757
  H         2.2148076102        7.0696722565       27.8699587597
  C         1.4628185082        5.2301608009       28.6674072199
  C         5.1557321613       -0.1957341506       32.7971506841
  H         7.2027864593        2.7141503905       18.4522181979
  H         6.5318670578        3.4093656319       19.9106317729
  C         5.5120029450        1.6952906312       19.0437926319
  H        11.2930420306        2.6803877762       22.1290817167
  H        11.7863013462        2.9834344498       20.4218890783
  C        12.7944629931        1.3111596869       21.2572558285
  C        10.0677599808        7.5788538591       17.1116728604
  C        10.4285119486        5.3477501093       16.1140571489
  H         0.6049168768        5.3460852426       29.3399998925
  H         1.4557672269        4.2856510745       28.2130065132
  C         2.7067549218        5.4152984882       29.5733227802
  H         5.4084934102       -1.2169533499       32.6963542454
  C         4.9285358474        0.2471107470       34.0666809927
  H         4.9778849011        1.4655229152       19.9242063122
  H         5.6619092477        0.8061911821       18.4704615771
  C         4.4473307380        2.4121004393       18.2084810989
  H        12.8239213853        0.8421738283       22.2259587036
  H        12.4763600638        0.5779227132       20.5508319290
  C        14.1493619256        1.9749006137       20.9206851559
  N         9.8580148875        8.5075759916       18.1062803549
  C        10.4259675991        8.1782983640       15.9500596115
  C        10.7301145034        5.9643255534       14.9115307397
  H        10.4936342314        4.2540188658       16.1088430294
  H         2.7811070461        4.6049056592       30.2630459134
  H         3.6153037590        5.4216512052       28.9213306714
  H         2.5766109603        6.3546031715       30.1586861744
  S         4.5069801554        1.8747061485       34.5592532540
  C         4.8459865966       -0.7744661119       35.1263521797
  H         4.1427242127        3.3446715743       18.7291636524
  H         4.9078827295        2.6817643649       17.2661121102
  C         3.1500516716        1.6207352809       18.1627213228
  H        14.0816264477        3.0443108844       20.6314665856
  H        14.3920069101        1.5613186044       19.8770212386
  C        15.2098476771        1.7099934912       21.9837507687
  S         9.9589294722       10.0302561908       17.4885225734
  N        10.5011467860        9.5615006464       16.0557143348
  C        10.8128677210        7.4386041031       14.7834989562
  H        11.0499253814        5.2760313905       14.1000049947
  C         4.4587122726        1.1601265335       36.1884305804
  N         4.6451418371       -0.1504779734       36.2965085124
  O         5.2241819230       -1.9775555156       34.9354629241
  H         2.3806341880        2.3048699506       18.0495433880
  H         2.9804860069        1.2840158979       19.1305079776
  C         3.2280121592        0.5788145757       17.1171669075
  H        14.9144480963        1.7472381570       22.9909824920
  H        15.5204437426        0.6958565105       21.7324532919
  C        16.4206197853        2.6659783041       21.8039678142
  C        11.1447020138        8.2206965403       13.6945410969
  S         4.2420078152        2.0197535607       37.7371661672
  C         4.8729709214       -0.8122327500       37.5923753319
  H         2.3454878575        0.6450965550       16.5748423506
  H         4.1202404145        0.7745224285       16.5224401255
  C         3.4008200934       -0.8523578806       17.7347295796
  H        16.1755630369        3.6187116893       22.2052794474
  H        16.6280159278        2.8528748842       20.7031737994
  C        17.7103866715        2.1506653540       22.5443635178
  H        11.0000210732        9.2632219199       13.8292696987
  C        11.6263489760        8.0278796037       12.4044497608
  H         4.1149764032       -0.4944375813       38.2873275983
  H         4.8249465776       -1.8602715129       37.4585434808
  C         6.2398118999       -0.5484872191       38.1474052911
  H         4.2060803558       -0.7257078105       18.4497534099
  H         3.8777802822       -1.4346593697       16.9985077733
  C         2.1474199215       -1.4936474908       18.3776992943
  H        18.1023647231        1.3035443051       21.9883190110
  H        18.5039262569        2.8445284652       22.5664118594
  C        17.5347028691        1.7152139866       23.9347686561
  S        12.2002378320        6.5447782846       11.8665517291
  C        11.6724705589        9.1277870785       11.4323784559
  H         6.4813697862        0.5183135284       38.0082802541
  H         6.3135672723       -0.7538587872       39.2106089942
  H         6.9511955904       -1.1142687407       37.5547690759
  H         1.1402572682       -1.2082004799       17.9778833746
  H         2.1313429953       -1.2187186072       19.4535645466
  H         2.1630152395       -2.5732052146       18.2775477404
  H        17.1118534433        0.7668876530       23.9416436414
  H        16.8056765510        2.2794414275       24.4737449467
  H        18.5204606272        1.5279617220       24.4102203508
  C        12.6413624738        7.3089138321       10.3431261625
  N        12.2799101302        8.6174172814       10.3597822557
  O        11.3268261096       10.2934410253       11.6449440036
  S        13.4153831680        6.4503194382        8.9418938994
  C        12.3465676378        9.4134489555        9.1119051839
  H        12.1505619297       10.5339331768        9.2211024979
  H        13.3661929698        9.4708451501        8.7964100385
  C        11.1704171271        8.9791117582        8.2522287073
  H        11.3022820024        7.9647339408        7.8524821153
  H        10.2895334915        8.9807574563        8.8541614099
  H        11.1387139061        9.7611203896        7.4417761476
  H         2.4693306176        3.9370255808       12.5302810150
  C         3.0200332249        3.0049165291       12.2567118676
  H         2.5048381549        2.2468128045       12.9564260929
  C         2.7498135123        2.5743995551       10.8298516437
  C         4.4728882161        2.9369033717       12.6962294821
  C         3.8534623004        2.9547101375        9.8293094209
  H         1.8485759684        3.1209475698       10.5366080199
  H         2.4292144012        1.5846583499       10.7037057990
  H         4.5902817349        3.2143634962       13.7859060608
  H         5.1440530450        3.6047488794       12.1811012428
  H         4.8338323296        1.9613676370       12.6694745136
  C         4.7755841913        1.8137269463        9.5569332948
  H         3.4167887002        3.2437626173        8.8433137174
  H         4.4514673050        3.8260708848       10.2574901464
  C         5.5632367478        2.0157253633        8.2239270705
  H         4.0932260253        0.9848430693        9.4145832460
  H         5.3818576425        1.6629372317       10.4130024653
  C         6.7871373524        2.9253717275        8.4959752664
  H         4.8961564288        2.3939652712        7.4893238837
  H         5.7160718089        1.0460138982        7.7471055386
  C         8.0611773026        2.2090866419        9.0034273930
  H         7.1029797873        3.4929298751        7.5359938926
  H         6.5533725130        3.5796839906        9.3183090098
  C         9.3837587501        3.0055731630        9.2529476135
  H         8.3266349509        1.4993389912        8.2245958360
  H         7.7379726793        1.5568303679        9.8515421770
  C         8.9185564592        4.3078243188        9.8895921436
  C         9.8226641344        3.6970317787        8.0577581515
  C        10.4756908060        2.2643097135       10.0804480226
  C         9.0503612980        5.4768102785        9.1466091735
  C         8.3917704076        4.6719870819       11.1345025747
  C         9.6172137113        5.0781311740        7.9641792984
  C        10.3227578091        3.0438861847        6.9383988151
  H         9.9621813765        1.8979117112       10.9070784870
  H        10.7031173380        1.2674144005        9.6456998207
  C        11.7278001698        3.0303319277       10.3898970472
  S         8.5360141625        6.9387414606        9.9405654528
  C         8.1707755654        6.0051037598       11.3346585283
  H         8.0864746496        3.8431118011       11.8325397141
  C        10.0240001893        5.6537829398        6.7535694053
  H        10.4311959121        2.0419686865        7.0816877242
  C        10.6279162690        3.6031318971        5.7642816962
  H        11.4594720968        4.1115752237       10.5457521997
  H        12.2140819382        3.0403501146        9.4005371609
  C        12.6517827559        2.5275668286       11.4534786287
  C         7.6548513021        6.6818268366       12.5776513416
  C        10.5379872753        4.9369061109        5.6080792245
  H         9.8774652192        6.7286642091        6.6695341936
  C        11.0119829396        3.1671247097        4.4977951283
  H        13.3852419704        3.3453404424       11.4866099141
  H        13.1061235253        1.6648041893       11.0684886205
  C        12.1403211017        2.2404783999       12.7943813560
  C         7.8452212163        8.0206110008       12.9638322733
  C         7.2280797186        5.8036600823       13.7168193516
  C        10.9802175042        5.5862581225        4.2751115956
  C        11.2176474257        4.2013071535        3.6076629848
  S        11.2072054870        1.6324573847        3.7882791431
  H        11.5280786694        3.0578657353       13.0731223292
  H        11.4114077028        1.3881367111       12.7712104524
  C        13.2988702886        1.9008406211       13.7396813876
  N         8.2817502225        9.0697704804       12.1100058927
  C         7.5462819770        8.4788492192       14.2396158184
  C         6.9652153256        6.2974788922       14.9785805136
  H         6.9235934948        4.8607449968       13.5456198201
  C        12.3604844283        6.3080517389        4.3867460935
  C         9.8281622093        6.4009362134        3.5865347713
  C        11.4403150053        3.7088333801        2.2995187809
  C        11.4804446833        2.3014014485        2.2551805554
  H        13.7973720715        2.8435317354       13.9021292979
  H        13.9985542470        1.1661462178       13.2675945438
  C        12.7401061917        1.2669761875       15.0345375605
  S         8.3802641707       10.4402332317       12.9776568941
  N         7.7550944365        9.8971214133       14.3906765897
  C         7.1319193425        7.7008410227       15.3166120899
  H         6.9074251758        5.5687008702       15.7460418840
  H        12.2328877658        7.2610531977        4.9476548344
  H        12.7351222490        6.6360380621        3.4129400379
  C        13.5202946399        5.3982642129        5.0043242578
  H         9.4212825307        7.0929985914        4.3395445972
  H        10.1737015874        7.0497058665        2.7687239448
  C         8.6392420898        5.5319426039        3.1095618181
  H        11.6185729454        4.4251366241        1.5459196603
  C        11.7773537923        1.5064169445        1.0371168776
  H        11.9697501939        1.9585891732       15.2853334043
  H        12.2514057469        0.2936002013       14.8763077889
  C        13.6261542224        1.3364352092       16.3191416108
  C         6.9679036707        8.3700670501       16.5514877731
  H        13.2432369234        5.1034727256        5.9843228995
  H        13.7737679933        4.4841762592        4.3987609631
  C        14.8587839262        6.0989425099        5.2158501253
  H         8.2463098108        4.9719774607        3.9518661501
  H         8.8280098310        4.7572971188        2.3684583561
  C         7.6044545327        6.4933708503        2.6265945202
  C        11.9781047938        0.0988900915        0.9869175498
  C        12.0616862109        2.1289080592       -0.2857712820
  H        14.5800200263        1.7128112826       16.0010147477
  H        13.9506806962        0.3984407761       16.6891053134
  C        12.9884487921        2.2753983906       17.3810764682
  H         7.0225616751        9.4374234166       16.5485112803
  C         6.6230243122        7.9146313929       17.7841497592
  H        14.7887321881        7.0082470445        5.8563562810
  H        15.2523402151        6.4071529426        4.2332714058
  C        15.9378577979        5.2195834807        5.7944839087
  H         7.2942991335        6.8984717086        3.5197617735
  H         7.9291627210        7.3286734124        2.0226069820
  C         6.4093246101        5.7537058080        1.9038753923
  N        11.7409279490       -0.8162936533        2.0496605191
  C        12.3402483667       -0.6260019893       -0.1281142837
  C        12.5246031277        1.4057963557       -1.4125595133
  H        11.9799168382        3.1648035854       -0.3579979986
  H        12.4434798993        3.1663437116       17.0207874674
  H        13.8311731537        2.6589541835       18.0415162080
  H        12.4267630553        1.6883732264       18.0697365125
  S         6.4407124820        6.2926894141       18.3795614138
  C         6.3819184049        8.9377405944       18.8229594476
  H        15.4284650853        4.5213772386        6.4571672375
  H        16.2925357709        4.4425010627        5.0929500619
  C        17.0071156753        5.9493912637        6.6045035360
  H         5.7491851208        5.1896578782        2.5588452261
  H         6.8000037729        5.0158535882        1.2038380295
  C         5.5159069567        6.8139534705        1.2619775149
  S        11.7785631735       -2.3581503303        1.5545763226
  N        12.3428593850       -2.0064966263        0.0365093864
  C        12.7473872357       -0.0505842949       -1.3809722004
  H        12.7290888256        2.0316228275       -2.2973812157
  C         5.9855423799        6.9852473943       19.9102971160
  N         6.0363000845        8.3152198369       19.9621449460
  O         6.6459722616       10.1216666493       18.7170944632
  H        17.4736522997        6.6614852313        5.9782854791
  H        16.4900472171        6.4455179246        7.3727488315
  C        18.0666881153        4.9865920643        7.1656941026
  H         6.1375570870        7.3067086327        0.5465260716
  H         4.6003945864        6.4476179809        0.7593432984
  C         4.9839132641        7.8778043970        2.2878828056
  C        13.1191642038       -0.8092983054       -2.4963790517
  S         5.5435469429        6.0483542006       21.3303009537
  C         5.9229841715        9.0359439733       21.1389917204
  H        17.6522373096        4.6349073495        8.1821500826
  H        18.2665624154        4.1443019120        6.5889495443
  C        19.3856953505        5.6799823108        7.2771969596
  H         5.7916974473        8.5621061861        2.6163203903
  H         4.6529060532        7.4259795002        3.1974758594
  C         3.9641720889        8.7899561296        1.5996854768
  H        12.9865890496       -1.8705305286       -2.2990075453
  C        13.4628892044       -0.5440519559       -3.7957767841
  H         5.2161447676        8.5467999120       21.8170664440
  H         5.5806526308       10.0561635461       20.9252302206
  C         7.3694162874        9.2528634287       21.6938555526
  H        19.9902626450        5.3605999964        8.1050219084
  H        19.2436476273        6.7847244076        7.3368643257
  C        20.2591345221        5.4499653818        6.0540313921
  H         4.1173607467        8.8779061484        0.5639463830
  H         2.9035361403        8.4822928742        1.7349837793
  C         4.1374498987       10.1959513031        2.2409743551
  S        13.7524416944        1.0235690866       -4.4047133953
  C        13.6855243180       -1.6554905231       -4.7570033102
  H         7.4845599491       10.2092780247       22.1708677840
  H         8.1862201017        9.0365699348       21.0511654879
  H         7.4643195117        8.4804478851       22.4433305172
  H        19.7601602537        5.2690023595        5.1742518714
  H        20.8266149697        6.3580948449        5.7940079235
  H        21.1103717432        4.7380527818        6.1370889133
  H         4.1592437193        9.8789480198        3.3225892789
  H         5.0901086565       10.5892759006        1.8735100395
  H         3.3289734418       10.8173960028        1.9197006939
  C        14.1956729976        0.2250307246       -5.9493019549
  N        14.0582994224       -1.1303741791       -5.9376750893
  O        13.2705214467       -2.8435782556       -4.5694497039
  S        14.9401999419        0.9998403790       -7.3727374082
  C        14.2092029214       -2.0207485301       -7.1186792669
  H        14.2251793961       -3.0707510493       -6.8279126362
  H        15.2317406634       -1.8064325091       -7.3615030225
  C        13.0444936097       -1.7759546331       -8.1539501389
  H        12.0716090733       -1.9827460147       -7.7721192578
  H        13.1379417968       -2.4786254515       -8.9704169765
  H        13.0100406368       -0.7722947522       -8.5528110671
