352
 i =    14800, time =     7400.000, E =       116.3571828285
  H        10.6155992518        4.1083774388       32.5969410576
  C        10.7566083289        5.2038501438       32.6705064350
  H        10.2233438145        5.4442528463       33.6135369004
  C        10.2067422758        6.0281689337       31.5095427919
  C        12.3118697646        5.3121233889       32.8693996393
  C        10.8014312244        5.5376769334       30.1823704347
  H         9.0942815571        6.0225941058       31.3852379865
  H        10.5402536863        7.0134622917       31.7727722569
  H        12.6143864809        6.1850922001       33.4076422356
  H        12.7814779759        4.4846448912       33.3752138727
  H        12.8757146870        5.2279256013       31.9707317109
  C        10.0907877795        6.3668138169       29.0434293426
  H        10.5027354302        4.4947393700       29.9952477901
  H        11.9053200028        5.5010279861       30.0985761227
  C        10.5267420101        5.9136534702       27.6295239135
  H         9.0261622558        6.3859542613       29.1979099273
  H        10.3987139525        7.4249964379       29.2544323289
  C         9.5687995746        4.8952282736       27.0249529426
  H        11.5078138009        5.4964592174       27.5870004239
  H        10.6932363459        6.7797622022       27.0711281254
  C         8.4374331140        5.6663637765       26.4511076384
  H        10.1622404894        4.4910390033       26.2378495029
  H         9.1640942535        4.1426536576       27.7281826811
  C         7.3648237062        4.9984917310       25.5747749814
  H         8.0054223601        6.1913775146       27.2655055697
  H         8.7601700145        6.4884214934       25.7894280249
  C         7.0917573429        3.6214684213       26.2782764893
  C         7.8605889083        4.3525138712       24.3306800172
  C         6.0514460515        5.7850003334       25.4547751412
  C         7.3321031419        2.5428494246       25.3586790001
  C         6.4786756198        3.1640762595       27.3958126222
  C         7.9182486379        3.0073597196       24.1703479222
  C         8.3060349238        4.9884969970       23.1505849279
  H         6.3383706709        6.6410254094       24.8007415116
  H         5.8383713555        6.3713569350       26.3425018904
  C         4.8449418539        5.1704250349       24.8247423710
  S         6.9570368042        0.9811050126       26.1076903159
  C         6.3266035904        1.8007685515       27.4855133878
  H         6.2359590409        3.8290628036       28.1670771928
  C         8.3168704811        2.4268650739       22.9984940558
  H         8.4313881301        6.0474242000       23.2917047437
  C         8.5764617291        4.4588501895       21.9085907581
  H         5.1252718440        4.7315962008       23.8581543921
  H         4.6069318592        4.3108978546       25.4325977123
  C         3.6252353863        6.1536397878       24.6572077917
  C         5.7341210552        1.1319571896       28.6839423788
  C         8.6204859747        3.1007417304       21.8214587647
  H         8.4146385011        1.3441762843       22.9839844962
  C         8.8859418004        4.8396157401       20.6381489353
  H         2.8716168601        5.4511078709       24.2812582759
  H         3.7090404468        6.8347681264       23.8938881766
  C         3.0099264257        6.6388552889       26.0064241628
  C         5.7182237845       -0.2631466224       28.9400159420
  C         5.2350908327        1.9548653124       29.8343910475
  C         8.9212695270        2.4473680496       20.4717511559
  C         9.1639524964        3.7701714378       19.7956478516
  S         9.0025307763        6.4098834895       19.7806516684
  H         2.4004244962        7.4486647407       25.6706603133
  H         3.8680474852        6.9855409325       26.5568274976
  C         2.3070725834        5.6190999858       26.8169348821
  N         6.3508410745       -1.1770242888       28.1301859170
  C         5.3397035058       -0.7569339734       30.1883861027
  C         4.8563976954        1.4403087424       31.0402064769
  H         5.1267382562        3.0681447187       29.7905725084
  C         7.7013597038        1.7278146162       19.8641386586
  C        10.1855010025        1.6349716186       20.4851971708
  C         9.6298931255        4.2176989151       18.6023387489
  C         9.6470764274        5.5778038852       18.4895353750
  H         1.7178332724        5.1154854628       26.1239836865
  H         3.0070748243        4.8359144475       27.2855842737
  C         1.4375816184        6.2052819336       27.9946151617
  S         6.3906951559       -2.6243919167       28.9090660722
  N         5.5511325206       -2.1744568988       30.2062942593
  C         4.9062722617       -0.0183647972       31.2768964791
  H         4.4693119164        2.1448539921       31.7574200360
  H         7.3340747823        0.9373774364       20.5430113008
  H         7.9935113220        1.3199087028       18.8963273164
  C         6.4457014821        2.6311097330       19.5778722000
  H        10.2939709344        1.2149078575       19.4497137271
  H        10.0161708633        0.7467024394       21.1216875312
  C        11.4540756117        2.3832900811       20.7779283429
  H        10.0433641047        3.4836322289       17.9457137050
  C         9.9064257589        6.3104533516       17.2286775374
  H         0.4881924061        6.6894552966       27.5497847039
  H         1.9462277164        6.9553321408       28.6551147748
  C         0.8662604616        5.0637898447       28.8461113288
  C         4.7265215527       -0.5836262493       32.5732536497
  H         6.5878211990        3.4470029165       18.8090189227
  H         6.2147427465        3.2190080829       20.4811776080
  C         5.2331879827        1.8659087918       19.0825793803
  H        11.3094021665        3.0682937774       21.6383622098
  H        11.7390594778        2.9474582185       19.8656283988
  C        12.5602104741        1.3545008895       21.2109291675
  C         9.9299127693        7.6819841928       17.0465118417
  C        10.2272994816        5.4407461636       16.0419569734
  H        -0.0937583008        4.7415905197       28.4774957492
  H         1.5411675369        4.2348438319       28.7205089650
  C         0.8544822221        5.4882884580       30.3479635761
  H         4.6900009130       -1.6674510224       32.5842170325
  C         4.5256148373       -0.1705752217       33.8747741810
  H         5.0745242316        1.0251348348       19.7544109634
  H         5.5283970201        1.4159725639       18.1398691735
  C         3.9920550209        2.7723482431       19.0020306843
  H        12.2940594006        0.6861153805       22.0758535893
  H        12.6369769160        0.7183724318       20.4169200405
  C        13.9465131724        1.9903233444       21.4435795261
  N         9.7273054587        8.7186467866       18.0125414717
  C        10.2971658429        8.2428363807       15.8461608426
  C        10.4780729245        5.9827088407       14.7669190289
  H        10.3725222579        4.3591281877       16.1671222061
  H         0.7571641066        4.5105014164       30.8507731743
  H         1.7913975302        6.0027717724       30.6370547125
  H         0.1335665534        6.1879901776       30.5965419472
  S         4.1264146025        1.4812308080       34.2889423576
  C         4.5792363987       -1.1388537580       34.9800537955
  H         4.0545820398        3.3789385026       19.8327030009
  H         4.1874130571        3.4356961966       18.1913836022
  C         2.6835227394        1.9507388664       19.0294569354
  H        13.7993659329        3.0007493558       21.1220646968
  H        14.7460258919        1.4741624235       20.8625020736
  C        14.2412463439        1.9828763124       22.9146434446
  S         9.9703522681       10.1298432393       17.2690358103
  N        10.4463128146        9.5053036647       15.8281444025
  C        10.5652801356        7.4711289929       14.6816587664
  H        10.6921207242        5.3247496742       13.9400562270
  C         4.1716580109        0.8445233978       35.9649302046
  N         4.2870935163       -0.4971288596       36.1083293627
  O         4.8476982836       -2.3617389955       34.8824674560
  H         1.7040812178        2.5453695432       19.2181516278
  H         2.8038726898        1.3049641607       19.9014368650
  C         2.4276173794        0.9962638387       17.8467322284
  H        13.4539384237        2.4050820414       23.3802080599
  H        14.4008631715        0.9469974094       23.2645010699
  C        15.3495620039        2.8210319375       23.4975830312
  C        10.9401286882        8.1042971789       13.4148379150
  S         3.9314239904        1.6528518157       37.4725768771
  C         4.3041708242       -1.1735145080       37.3827803001
  H         1.6448104083        1.3046352020       17.2554931456
  H         3.3130027283        0.9479930676       17.2008960557
  C         2.1518392466       -0.4112147413       18.3478601451
  H        15.0811890049        2.9019177823       24.5710202103
  H        15.5573608422        3.7573606668       23.0060028200
  C        16.6618916125        1.9662732511       23.4835739922
  H        10.5265722820        9.1332190688       13.4113410586
  C        11.5257080615        7.6997456255       12.2479194616
  H         3.6268197860       -0.7260112736       38.1775537534
  H         3.9619317313       -2.1168746878       37.0529687577
  C         5.7153393726       -1.3188611239       38.0255309959
  H         1.2219756332       -0.6059782956       18.8367592892
  H         2.8781726623       -0.8492743902       18.9637714802
  C         1.9819771596       -1.1711901798       17.1003302705
  H        17.2658565164        2.2231971702       24.3571618182
  H        16.6543859736        0.8839601514       23.5254518512
  C        17.5026875564        2.2062829049       22.3353371288
  S        12.0196880723        6.0529122209       11.9225751649
  C        11.5596317087        8.6260088128       11.1185135416
  H         6.3267203859       -0.4470647714       37.9008036199
  H         5.5397332311       -1.5122148200       39.0585732308
  H         6.2342727359       -2.1602904230       37.5264674404
  H         1.5936871378       -2.1580932405       17.3430630079
  H         2.9694956072       -1.3566748247       16.6816928005
  H         1.5130878456       -0.6276672132       16.2853834410
  H        18.1314057717        3.0892776865       22.5591599185
  H        16.8308401008        2.3547432776       21.3973119171
  H        18.2374660820        1.4186840930       22.1897163861
  C        12.4214605650        6.6015178637       10.2617513488
  N        12.1033122467        7.9177186678       10.0603574154
  O        11.4007142144        9.8021902672       11.2959229612
  S        13.2357218416        5.7042387669        8.9937621105
  C        12.4073786100        8.6252154791        8.7948019615
  H        12.9413464454        9.5462896063        9.1448702984
  H        13.1470515899        8.2132591250        8.0698785328
  C        11.1683893609        9.1929753663        8.2570599446
  H        11.0324998681        9.0485888611        7.1752817156
  H        10.3507141182        8.7483973533        8.7489922732
  H        11.0001423647       10.2350043012        8.5239017118
  H         4.7390874396        1.6916358054       12.8674451597
  C         3.9556260689        2.3747819075       12.9752185424
  H         4.5076735094        3.2589296250       12.8709408870
  C         2.9297048724        2.4001645711       11.8609685364
  C         3.3315435547        2.2962613595       14.3685537798
  C         3.4663351009        2.6303999049       10.4336706767
  H         2.1934934028        3.0986860728       12.1462425117
  H         2.3253492919        1.4445611293       11.7996619743
  H         2.3791839217        1.7703613062       14.3882954640
  H         3.2185852637        3.3191331940       14.7961577007
  H         3.8895416814        1.7011454540       15.0379790263
  C         4.1685633668        1.4300774880        9.7790883341
  H         2.7549859608        3.0633979333        9.7349279040
  H         4.2794432087        3.4353688048       10.5228991555
  C         4.8149187438        1.6693711886        8.3875726239
  H         3.4306267449        0.5977155743        9.7499623168
  H         5.0482875976        1.1425312982       10.3590076000
  C         6.1176227436        2.4802788343        8.5798811700
  H         4.1538687519        2.3198702686        7.7421964073
  H         5.0814424045        0.7232567242        7.9423090922
  C         7.4339571204        1.7409452149        8.9175130401
  H         6.4204979355        3.0060334267        7.6727094784
  H         6.0138921541        3.2311839813        9.3052347769
  C         8.6831167152        2.6248875530        9.2592250879
  H         7.6793822345        0.9671988874        8.0811289172
  H         7.1348307780        1.1895765521        9.8307434131
  C         8.3490949697        3.9597738890        9.9741046019
  C         9.1727537951        3.3615839816        8.0816441435
  C         9.7643918913        1.9482357191       10.0870026812
  C         8.5722629223        5.0773615323        9.1933273408
  C         7.7688842253        4.3583327050       11.2522279563
  C         9.1391161052        4.7273552122        7.9824261982
  C         9.7844093323        2.7842032975        6.9554685949
  H         9.3941674445        1.5678858759       11.0779371641
  H        10.0233265720        1.0182571257        9.5552685790
  C        11.0736653590        2.8033087785       10.1100906412
  S         8.2382755235        6.5380752409       10.0710938642
  C         7.6688289622        5.6850198528       11.4138399594
  H         7.5928854821        3.6514567917       12.0472835729
  C         9.6313013986        5.4083547512        6.8838744756
  H         9.8978253817        1.6930497394        7.0529444641
  C        10.1476893001        3.4794585902        5.8113713751
  H        10.8572935866        3.8155675923       10.4560391822
  H        11.4213650504        2.8864373785        9.0746282869
  C        12.0371849383        2.2737253947       11.1816238616
  C         7.3462954352        6.4775304537       12.6680853734
  C        10.0005283240        4.8128329219        5.7091654257
  H         9.5890657650        6.4693494200        6.8521573289
  C        10.5345490080        3.0792373611        4.5828038786
  H        13.0339457896        2.8183874139       11.1129637613
  H        12.2401354923        1.2071793296       11.0086350191
  C        11.3909449553        2.4221061226       12.5938304292
  C         7.5448071684        7.8571221666       12.9150501150
  C         6.7162688538        5.6675948019       13.7559900391
  C        10.3893643992        5.5250202806        4.4522745725
  C        10.7334309271        4.1817522372        3.7748326053
  S        11.0064550529        1.5698536247        3.9093159469
  H        10.6355520792        3.2902112852       12.5983730047
  H        10.8025468705        1.5046191693       12.6675640386
  C        12.4395072538        2.7003143289       13.6911711092
  N         8.0585543398        8.7651011564       12.0357860895
  C         7.2623165309        8.4369778126       14.1397899384
  C         6.5213442390        6.2872473423       14.9964680515
  H         6.5958793208        4.5997567273       13.6258469526
  C        11.6805832194        6.3395352085        4.6252342394
  C         9.2333627962        6.2834445769        3.7731583566
  C        11.2368385359        3.7479128330        2.5270189480
  C        11.3254280252        2.3858084255        2.3603969698
  H        11.9041587449        3.1661701580       14.4588788255
  H        13.2191382097        3.3538485809       13.2964898077
  C        12.8061691857        1.3930410001       14.4046385147
  S         8.1235092598       10.3123204114       12.7672103897
  N         7.6009605969        9.7812975428       14.1797135541
  C         6.8079966772        7.7446330548       15.2688164792
  H         6.1419765114        5.5864137591       15.7876609738
  H        11.4614903821        7.1841140792        5.3119867188
  H        11.8770676845        6.6767787855        3.6079152391
  C        12.9876241539        5.5853025145        5.0187326954
  H         8.8745819173        7.0786448490        4.4631121643
  H         9.6411792263        6.8142658850        2.9435161914
  C         8.1056791946        5.4460510957        3.1838490522
  H        11.4412044901        4.5421897473        1.8054652616
  C        11.7551019333        1.6361766799        1.1156052671
  H        11.8890013900        0.8177963438       14.7553399939
  H        13.3119363097        0.8170866206       13.6410026930
  C        13.7217791302        1.7399402375       15.6048857754
  C         6.5741870537        8.4407210268       16.4815082991
  H        12.8672445297        5.0518453923        5.9316308098
  H        13.2453351006        4.8205077003        4.3030402678
  C        14.1093165217        6.5654508610        5.2844814622
  H         7.7532220610        4.6483468519        3.8251925985
  H         8.5528156705        4.9228850526        2.3061836192
  C         6.9092416598        6.3770938787        2.7172072410
  C        11.7174926753        0.2145967106        0.9217422410
  C        12.0596372612        2.3697006182       -0.1474966019
  H        14.3616842490        2.5012135218       15.2386975872
  H        14.3557968465        0.8960919262       16.0010618736
  C        13.0999047675        2.4522839472       16.7380203737
  H         6.7702945262        9.5245479144       16.4611895773
  C         6.4206565064        8.0730991877       17.8114616374
  H        13.9134197441        7.1283873379        6.2136636236
  H        14.2358819686        7.3065226027        4.5678320564
  C        15.5050341247        5.8563812377        5.3616275060
  H         6.4086836112        7.0424680159        3.4230392912
  H         7.1361890866        7.0651147108        1.8919824594
  C         5.8570502158        5.4870258476        2.0768894138
  N        11.2214516534       -0.6799020937        1.8593174047
  C        12.1924816557       -0.4345455431       -0.1578830048
  C        12.3364890253        1.6524955440       -1.3319499847
  H        12.1816093629        3.4348641380       -0.0717263165
  H        13.8147708368        2.4029420776       17.5642445046
  H        12.0895885605        2.0450510364       17.0571650603
  H        12.9878616815        3.5200054860       16.5291321478
  S         6.0302479228        6.4685485193       18.3402098214
  C         6.3580006004        9.1112430222       18.8635450451
  H        15.5903373269        4.9961220405        4.6852835178
  H        16.2309028268        6.6083308191        5.1122352976
  C        15.9503512988        5.4077142891        6.7337831066
  H         5.2811828599        4.8792378030        2.7148255458
  H         6.3116498344        4.8840240173        1.3213566175
  C         4.7785676840        6.1887343269        1.2873844512
  S        11.4764698781       -2.1920833990        1.3707059976
  N        12.1962055580       -1.8486646479       -0.0901430574
  C        12.4656537683        0.1982223508       -1.4009703109
  H        12.3477797480        2.1863186469       -2.2823930985
  C         5.8583641357        7.2224247476       19.9820396274
  N         6.1488524362        8.5875121180       20.0378152044
  O         6.4771422739       10.2789632285       18.6528919759
  H        15.7775754993        6.1545833841        7.5258051747
  H        15.5098182615        4.3993016898        7.0464185253
  C        17.4067110633        4.9532435149        6.8379344286
  H         5.3228217584        6.5046346394        0.3856949911
  H         4.2082285774        5.3675025719        0.8344868191
  C         3.9819087638        7.3208184954        1.9465291822
  C        12.7485810997       -0.5763926006       -2.5700214160
  S         5.7758471424        6.2630315263       21.3920176063
  C         6.1397036933        9.3427919983       21.2984646514
  H        17.5080160994        4.6827692689        7.8900672879
  H        17.8663163672        4.2082240102        6.1374057127
  C        18.3917969862        6.1709276122        6.6940322257
  H         4.2885130334        7.6133734090        2.9399745414
  H         3.0303925345        6.9121373901        2.2019790796
  C         3.6850128717        8.5136312552        1.0810006673
  H        12.2272349751       -1.6187130783       -2.6132459253
  C        13.2471187600       -0.2123864133       -3.7955757517
  H         5.5623309121        8.8636452597       22.0802465909
  H         5.7628147345       10.3923736022       21.1936692790
  C         7.5576017099        9.4702715094       21.8906520907
  H        18.6649253088        6.6043966264        7.6601333708
  H        18.0659558669        7.0136953660        6.0394625506
  C        19.6755087046        5.6100459159        6.1137347523
  H         3.4107079163        8.2757528311        0.0367801839
  H         2.7992965073        8.9629347895        1.4646966293
  C         4.8898405970        9.4190625128        1.1256449699
  S        13.8532252148        1.2550591162       -4.2658097148
  C        13.3663406167       -1.2549753507       -4.8705108784
  H         7.6337784485        9.6332955802       22.9429415118
  H         7.9153419045       10.3058127615       21.3084925170
  H         8.0962875158        8.5424244907       21.6638339154
  H        20.3583524016        6.3605929950        5.8519891249
  H        20.0947335524        4.8780020550        6.8120296449
  H        19.5134980048        5.0574240184        5.2001127372
  H         4.8730762354       10.2902126907        0.4707223859
  H         4.8857675129        9.7920335265        2.1394702629
  H         5.6780373932        8.7102640112        0.9650413721
  C        14.1028329163        0.5680857433       -5.8678326626
  N        13.8880056827       -0.7509887456       -6.0012952926
  O        13.0759103756       -2.4799770756       -4.7819081270
  S        14.7703540658        1.4148192518       -7.2391593468
  C        14.1894187264       -1.6400241640       -7.1244843992
  H        14.3352386941       -2.6556071722       -6.7018026549
  H        15.1998066155       -1.4475305393       -7.4466348175
  C        13.2043257446       -1.5905111123       -8.2383156057
  H        13.7151772865       -1.0744959162       -9.0421362997
  H        12.3730250823       -1.0776711774       -7.9123535291
  H        13.0026252188       -2.5628384966       -8.6142115135
