352
 i =    73500, time =    36750.000, E =        98.4282493442
  H        12.7781796703        6.6848843738       32.0236548543
  C        12.1833022134        5.7478312867       32.2186123768
  H        12.9474750930        4.9457231959       32.2482781896
  C        11.1975811714        5.4401161952       31.0968395014
  C        11.5589052093        5.8780589346       33.6561455828
  C        11.6666838297        6.0807559094       29.7742090685
  H        10.9981837900        4.3871924824       31.0182135575
  H        10.2023568174        5.9411103788       31.3403827561
  H        11.4720543967        4.9526444474       34.2280176910
  H        12.1326271168        6.5605679761       34.2566090923
  H        10.5813409636        6.3397057828       33.5882582228
  C        10.5754381011        5.7733437219       28.7058638097
  H        12.6418502018        5.8748841046       29.4145341201
  H        11.6542626462        7.1548747371       29.7977262050
  C        11.1148829723        5.8322246838       27.3352691364
  H        10.1814416202        4.7507122975       28.7915431516
  H         9.8236101399        6.5048107349       28.8119234136
  C        10.1644880637        5.1435256444       26.3190910192
  H        12.1177845903        5.4942680599       27.2783006500
  H        11.0498895667        6.9034064143       26.9601346484
  C         8.9230845517        6.0398311488       26.1315891202
  H        10.7310203461        5.1572835305       25.4394252939
  H         9.9172618811        4.1603788381       26.5055676138
  C         7.7251731571        5.2834612627       25.5877095547
  H         8.6015807107        6.4787093430       27.0850301283
  H         8.9930721273        6.8996076469       25.4471818128
  C         7.3215809195        3.9622612728       26.2621465238
  C         7.9604982650        4.5624689181       24.2761047060
  C         6.4625180015        6.1835431002       25.5966127368
  C         7.2388596375        2.8441904299       25.4139010012
  C         7.0373182247        3.5309350937       27.5974891232
  C         7.7859552487        3.2074162565       24.1754261337
  C         8.3932631396        5.1234118487       23.1226526053
  H         6.7345932908        7.1208789308       25.1164885412
  H         6.2027237936        6.4830020436       26.6401476345
  C         5.1779748733        5.4106846830       25.1650910870
  S         6.7602099398        1.3570458135       26.1779677325
  C         6.6122750188        2.2315487870       27.6355647979
  H         7.2481300918        4.2273642060       28.4546482611
  C         8.1522844689        2.5340291058       23.0056536197
  H         8.5134779676        6.2171227741       23.1047256492
  C         8.6950377576        4.4833204190       21.9557132678
  H         5.4026819157        4.9519819773       24.1865832676
  H         4.9098371330        4.5575061510       25.7314614891
  C         3.9506772800        6.3180293746       25.0597521001
  C         6.1598357079        1.5397452189       28.9322153843
  C         8.6240058951        3.1442260426       21.8924314157
  H         8.1450156382        1.4882970825       23.0900980939
  C         9.1570884329        4.8620191749       20.7407090202
  H         3.3086450525        5.6305755838       24.4975506824
  H         4.1802595020        7.0929647428       24.3609687342
  C         3.2265788692        6.6951157646       26.4149826030
  C         6.1831690518        0.1700270611       29.1917891553
  C         5.6370349364        2.4619114360       29.9522584780
  C         9.0884160125        2.4529706985       20.6734090943
  C         9.3506229479        3.7612468101       19.9561738996
  S         9.4617463971        6.3816873293       20.0538848132
  H         2.4423018901        7.4381064633       26.3096246665
  H         3.9360373219        7.2147771133       26.9975085245
  C         2.7778396389        5.3840321966       27.1277334852
  N         6.3899169803       -0.8702358519       28.3242194314
  C         5.8741400900       -0.2948942355       30.4957239239
  C         5.2605976617        1.9992553082       31.1684360275
  H         5.3531045519        3.4656616134       29.7074011596
  C         7.9707439370        1.6514929598       20.1282518918
  C        10.3829841471        1.5945683343       20.7156872130
  C         9.6336811338        4.1297492416       18.6576315649
  C         9.8117793744        5.4990626159       18.5911118249
  H         2.1800465838        4.8645961815       26.3802168342
  H         3.4998648245        4.5811720098       27.3227136219
  C         1.8760825708        5.6583362343       28.3052042296
  S         6.4614963769       -2.2676137999       29.1448490242
  N         5.9393580454       -1.6698152121       30.5463941145
  C         5.4095428844        0.5419961236       31.4924152440
  H         4.7650816891        2.7085358395       31.8290697369
  H         7.8162738523        0.9410390365       20.9594816988
  H         8.2254961655        1.1214754330       19.2228156672
  C         6.5934313991        2.3761905990       19.8492372892
  H        10.5861235956        1.0451546975       19.7805232461
  H        10.2187646081        0.9042269835       21.5595804648
  C        11.6146016135        2.4869561741       21.0260361422
  H         9.7798455690        3.3468801470       17.9563391921
  C        10.1199516203        6.2105691482       17.3526537716
  H         1.1417322887        4.8224366788       28.2624416932
  H         1.3289021716        6.5343649883       28.0724685479
  C         2.7562810865        5.7390377557       29.5714128159
  C         5.2600400709       -0.0344939527       32.7683070140
  H         6.6357671226        3.1790651928       19.0461683801
  H         6.2194892859        2.8438717268       20.7761710970
  C         5.5608273481        1.4200038498       19.3116497844
  H        11.3408668370        3.1683534552       21.8697583484
  H        11.7913870990        3.1371450520       20.1470215039
  C        12.8244219989        1.6709343884       21.3879553784
  C        10.3889509829        7.5793054976       17.2081548583
  C        10.2972087773        5.4012480480       16.1311034507
  H         3.4200967077        4.8863927932       29.6328483087
  H         3.4191507553        6.5915863486       29.4162286154
  C         1.8056282164        5.9504029100       30.8348567473
  H         5.7347651215       -1.0060462464       32.8261797764
  C         4.8710460717        0.4620723219       33.9933137757
  H         5.2878761937        0.6650420029       20.0577688010
  H         6.0774968764        0.8819253792       18.4908160393
  C         4.2858664671        2.1810622130       18.8996866459
  H        12.5057057609        1.1926772521       22.2689049388
  H        13.1165742875        0.7969038643       20.7376490787
  C        14.1206472420        2.4183808204       21.5210641633
  N        10.1673087172        8.5119523594       18.2294808815
  C        10.6043808341        8.1724417546       15.9797455452
  C        10.6257583136        5.9685056598       14.8920895303
  H        10.0360226807        4.3504050941       16.1264254943
  H         1.3901011479        6.9181868292       30.7724696726
  H         1.0907614810        5.1818585814       30.8993284189
  H         2.4876050642        6.0318642459       31.7028817802
  S         4.5081747162        2.0395013275       34.3645729959
  C         4.8738065353       -0.4693896242       35.0987184009
  H         3.9215720916        2.8284468249       19.6349059567
  H         4.4024878588        2.5384503417       17.8887584887
  C         3.0500606045        1.2470637288       18.7430651299
  H        14.1921135892        3.4169659189       21.0481895354
  H        14.8658536148        1.7743709787       21.0169352618
  C        14.4566474315        2.5552117378       22.9888507121
  S        10.1513865005        9.9413941218       17.6122149375
  N        10.6177721061        9.5441142676       16.0944248003
  C        10.7405534053        7.4260224819       14.7800389239
  H        10.3984364679        5.3909466800       14.0198967030
  C         4.3466184253        1.6000472909       36.0676533332
  N         4.5115874577        0.2334520546       36.1894147906
  O         5.1770404311       -1.6623658442       35.0220538304
  H         2.1061640944        1.7923506794       18.5542292921
  H         3.0940599879        0.7300854743       19.7248023508
  C         3.2773093375        0.2915557412       17.5791477987
  H        13.6017530703        2.6235096659       23.6965217120
  H        14.8063552383        1.5581869246       23.1696479673
  C        15.5131722921        3.6231017519       23.3213749527
  C        11.0665191142        8.0864872921       13.5420178674
  S         4.0102228249        2.6258166609       37.4478734659
  C         4.3919208635       -0.4280236027       37.5287678044
  H         3.3360626224        0.9339451364       16.6680521323
  H         4.2349049188       -0.2695536423       17.6233802022
  C         2.0284811499       -0.6696223700       17.5037704107
  H        15.6360449872        3.5537805930       24.3828279663
  H        15.2965928682        4.6388498520       23.0635713684
  C        16.9044617484        3.3629131804       22.8035597948
  H        10.9853536052        9.1637832882       13.6622264626
  C        11.4601083777        7.6270791215       12.2932857700
  H         3.6252748334        0.0527616987       38.2388997409
  H         4.0038882290       -1.4168655823       37.3671782185
  C         5.7203512517       -0.6115679166       38.2058577961
  H         1.6035833383       -0.7637309539       16.5234946667
  H         1.2142551004       -0.2678082888       18.0441144100
  C         2.4350631040       -1.9904101219       17.9567783436
  H        16.7503301601        2.8684311586       21.8105718535
  H        17.4365675675        4.2858853036       22.7069573274
  C        17.6941940504        2.4415126022       23.7375089527
  S        11.6713454467        6.0043918429       11.8628903168
  C        11.7691014348        8.6521743813       11.2971347466
  H         5.9792790420       -1.6685177766       38.3815247502
  H         6.5178151294       -0.0560764032       37.7534283214
  H         5.7803028222       -0.1912053914       39.2609034576
  H         3.1986038862       -2.4827117883       17.3458838161
  H         1.5235842490       -2.6031307948       17.9844409655
  H         2.8149388344       -1.9581682882       18.9385084310
  H        18.6607577949        2.4236960580       23.2797831487
  H        17.3278167896        1.3929418949       23.7964209375
  H        17.9397975497        2.7993090504       24.7088918017
  C        12.1544787497        6.6567763703       10.2565618108
  N        12.2345411038        7.9949261207       10.1962800455
  O        11.4803347555        9.8557786805       11.3984091232
  S        12.8015966820        5.6676353299        8.8382234249
  C        12.6034328705        8.6640441523        8.9726199890
  H        13.0577376588        9.6484466481        9.1452586067
  H        13.3602972497        8.1212892136        8.3746471209
  C        11.3363835420        8.7736865963        8.0974936549
  H        10.9542385783        9.7411155869        8.3187675971
  H        11.5819435540        8.7057876016        7.0595874554
  H        10.5756679267        7.9916436195        8.2001142960
  H         2.3088124841        1.7460363190       13.0808355672
  C         3.2809690102        2.1519225874       12.7348008932
  H         3.9751364916        1.2809507022       12.4931571592
  C         3.0706959048        2.9847325847       11.4978289529
  C         3.8271030828        2.8684904991       13.9204981072
  C         4.3325595592        3.1297719102       10.4967864641
  H         2.7371794923        3.9528157196       11.7959858355
  H         2.2631444287        2.4380266027       10.9510632224
  H         3.9598281292        2.2044807382       14.7167497146
  H         3.3015450592        3.7248009063       14.2006910186
  H         4.8326559848        3.2418436678       13.7762820183
  C         4.4829515541        1.7765453951        9.6899052080
  H         4.1249093401        3.8821187820        9.7196423867
  H         5.2218261834        3.4618757209       11.0705780911
  C         5.1719310696        1.9890500129        8.3494687790
  H         3.5334718898        1.3053692245        9.4875107373
  H         4.9901167849        1.0090231225       10.2377452575
  C         6.5396368243        2.6851318394        8.3875343058
  H         4.5420488025        2.5868667433        7.7120627080
  H         5.2359332381        1.0821640679        7.7621822670
  C         7.6813832615        1.8439733980        8.9901072262
  H         6.9440181577        2.7990283057        7.3464920864
  H         6.3632163779        3.7340526547        8.6800671277
  C         9.0261750093        2.5427403175        9.2891893147
  H         7.7979805834        1.1086831043        8.2199187247
  H         7.1992412552        1.3175299159        9.8577591988
  C         8.6747947075        3.8071746369       10.0273242043
  C         9.4625319500        3.2314438234        8.0735444185
  C        10.2034762562        1.6862767525        9.8942532987
  C         8.9235539025        4.9371185008        9.2491933855
  C         8.1926621330        4.2117278799       11.2583509231
  C         9.4832205417        4.6052293655        8.0718823092
  C         9.9542661769        2.6407852587        6.9036232422
  H         9.8864317524        1.2396711983       10.8176463511
  H        10.3977003193        0.7820156955        9.3087570786
  C        11.3960006248        2.6010885851       10.2317955260
  S         8.6120396265        6.4471552577       10.0456001560
  C         8.1135349810        5.5358185373       11.4424831155
  H         8.0104190643        3.4579434004       12.0124786087
  C         9.8492862967        5.2575357961        6.9445292995
  H         9.9369215649        1.5685633990        6.9004562066
  C        10.2887425586        3.3139556300        5.7552206416
  H        11.0600431678        3.5809460855       10.5533688695
  H        12.0641051429        2.7971249976        9.4231912248
  C        12.2933060048        1.9314919891       11.2857256912
  C         7.6833505924        6.1944499822       12.7395835127
  C        10.2845471161        4.6397222773        5.7731920162
  H         9.6353096905        6.2853217502        6.9187620562
  C        10.6969201970        3.0215617314        4.4350261178
  H        13.2704102874        2.3583498857       11.2727319235
  H        12.3584964599        0.8338004899       11.2041850081
  C        11.8548276754        2.3699757537       12.7593928405
  C         7.7420910684        7.6084959107       12.9519694380
  C         7.2208870605        5.4188530464       13.8706933333
  C        10.6973222399        5.4242419220        4.5699530878
  C        10.9314645304        4.1351287153        3.7006770850
  S        11.0358372939        1.5860282390        3.6651734750
  H        11.5704204954        3.4334901096       12.8607450217
  H        10.9426270398        1.7206577707       12.9373368029
  C        12.9121973888        2.0622331109       13.8349314601
  N         8.1193175713        8.5920061297       12.0090774307
  C         7.5901939822        8.1177180198       14.2016961854
  C         6.9579446227        5.9628811958       15.1253722393
  H         7.0624352458        4.3594992727       13.6277469742
  C        12.0491678720        6.2385071967        4.7046138778
  C         9.5943197475        6.3268130007        3.9552578071
  C        11.3865766662        3.7668153819        2.3990211489
  C        11.4455564581        2.4096454817        2.2307701979
  H        13.3334516394        2.9189335589       14.3308240780
  H        13.8048896762        1.6368068621       13.3675334800
  C        12.4083224424        1.0433208037       14.8316869397
  S         8.1550699928       10.0348494618       12.7349973619
  N         7.7611040185        9.5062744856       14.2574652164
  C         7.2412512938        7.3975748854       15.3788143503
  H         6.6742835389        5.2574855783       15.9068810818
  H        11.9952043332        7.0932882375        5.4446951395
  H        12.2627637922        6.7922877274        3.8178464413
  C        13.3427783259        5.4554043890        4.9417798133
  H         9.2795717904        7.1757534307        4.5654060571
  H        10.1792596024        6.7327664891        3.1385013171
  C         8.1911396864        5.6977109702        3.6468674695
  H        11.5951296787        4.5231430058        1.7032224337
  C        11.8250608076        1.6463874241        0.9553038751
  H        11.6038327268        0.4619416496       14.3875023663
  H        13.1164624467        0.3290404893       15.1934710263
  C        11.7081317230        1.7701429672       16.0052261710
  C         7.0654828057        8.1669287791       16.6168618835
  H        13.2200333727        4.7599617864        5.7429950069
  H        13.5967974160        4.8637351338        4.1047474998
  C        14.5696413949        6.2913488397        5.1326641738
  H         7.4925375539        5.6713836298        4.4720197763
  H         8.3481600985        4.6713026966        3.3673776175
  C         7.4921025339        6.3127770824        2.3837700126
  C        11.9341382214        0.2597566675        0.7613260139
  C        12.1902291556        2.5158326191       -0.1967760781
  H        10.8843908968        1.0921225697       16.3260343032
  H        11.2540160420        2.7266078373       15.7307348183
  C        12.7205771391        2.1232432515       17.0673986577
  H         7.0661945252        9.2595937632       16.5510168244
  C         6.7677987190        7.7286407178       17.8825277746
  H        14.5653987028        6.5738299501        6.1459272305
  H        14.5197777475        7.2650596047        4.6027971075
  C        15.9890136448        5.6775647404        4.9113701840
  H         7.6115924855        7.3694632366        2.4530592337
  H         8.0698587253        6.0115733324        1.5196556617
  C         5.9695051096        6.0899569420        2.1707158469
  N        11.5843886894       -0.7372285603        1.6898484384
  C        12.3916862251       -0.3350811028       -0.4722915309
  C        12.6663152531        1.8862017668       -1.3882419424
  H        11.9839890572        3.5710773884       -0.2987634763
  H        13.3259232757        2.9200258376       16.7246860051
  H        13.3051683926        1.1913322162       17.3926107511
  H        12.0461391975        2.4916966532       17.9358299528
  S         6.3394311309        6.0792375596       18.2793532868
  C         6.6966439093        8.7668132241       18.9494127490
  H        15.9779194465        4.5778523441        5.1501937653
  H        16.1292398048        5.6549533785        3.8654774713
  C        17.0872142245        6.5647875113        5.5854107463
  H         5.3224371079        6.2558065116        3.0337479773
  H         5.8659973676        5.0482358431        1.9693550442
  C         5.4948898451        6.9132417500        0.9767769994
  S        11.8353064123       -2.1739992076        1.0048382597
  N        12.3635531868       -1.6824810312       -0.4263440492
  C        12.7665890428        0.3984116729       -1.6189022607
  H        12.7500910098        2.5461577251       -2.2557414208
  C         6.0730042055        6.7840836580       19.8597791691
  N         6.1532872130        8.1655521864       20.0085675200
  O         7.0477916392        9.9543721512       18.8353701026
  H        17.8041377162        6.9254055315        4.7845551164
  H        16.6606775775        7.5122515536        5.9330047918
  C        17.7665572330        6.0274221870        6.8223171040
  H         6.2538409298        6.8611089559        0.1826795990
  H         4.5122942992        6.5211044138        0.6231278685
  C         5.3351615881        8.4817498027        1.2560558669
  C        13.0581019314       -0.2618927533       -2.8351639569
  S         5.6857282928        5.8290840790       21.2220474739
  C         6.0657154969        8.8195142015       21.3269834809
  H        17.2405810597        6.4490687582        7.7087944787
  H        17.6711663309        4.9327633989        6.8506798997
  C        19.2425583851        6.4286000705        6.9535531741
  H         5.9190224073        9.0505999659        0.5597660342
  H         5.6256602893        8.5630794484        2.2791374682
  C         3.8449427300        8.8004697971        1.1409569836
  H        12.8617118566       -1.3173164316       -2.8813014525
  C        13.5337442568        0.1305314794       -4.1052204200
  H         5.3823140298        8.3642893661       22.0715801669
  H         5.6251459642        9.7194733620       21.2098705091
  C         7.4373834459        8.8843230388       21.9683623508
  H        19.7167974891        6.1732272912        7.8970881205
  H        19.1965358330        7.5401243194        6.9048819595
  C        20.1660770305        6.0050400431        5.8421111299
  H         3.5033404928        8.7590098581        0.0238871959
  H         3.1129575266        8.1717439700        1.6826305551
  C         3.6867889279       10.2249716116        1.6031640250
  S        14.1135507832        1.6501560144       -4.5598280999
  C        13.5570915252       -0.9233052858       -5.1285697507
  H         8.2539986276        8.3671928027       21.4745061579
  H         7.3245964763        8.2824686765       22.8704685734
  H         7.7921905286        9.8674086925       22.1846387678
  H        19.9447913496        5.0269194845        5.4246645246
  H        20.1370917852        6.7895800969        5.1197874366
  H        21.2091042776        5.8866487292        6.1024821081
  H         3.1916839046       10.2480416226        2.5661169013
  H         4.6546865296       10.7165448619        1.7495300647
  H         3.0486830231       10.6378717873        0.8223660339
  C        14.3650268737        0.8984404295       -6.1270441943
  N        14.1475973664       -0.4596387748       -6.1907780678
  O        13.1074488342       -2.0269979049       -5.0149439469
  S        14.9818075979        1.6429754239       -7.6349959762
  C        14.0741149075       -1.2143188759       -7.5092445144
  H        14.1077722555       -2.2250042897       -7.0508479037
  H        14.9894487006       -1.0961952650       -8.0624585975
  C        12.8283839963       -1.0345079363       -8.3801328275
  H        11.9515698100       -0.7733926037       -7.7773319178
  H        12.6442879178       -2.1574957029       -8.7068189327
  H        12.9241617229       -0.3514175552       -9.2003444965
