352
 i =    70700, time =    35350.000, E =        99.6500272979
  H        11.6609323418        7.1486301086       32.5122593562
  C        11.6517964393        6.0775106795       32.3818233094
  H        12.6340425854        5.8181904487       32.0665325975
  C        10.5511789560        5.6813158029       31.3592764740
  C        11.2441185945        5.5366624007       33.7803587673
  C        10.9667799963        6.0844637023       29.9708254949
  H        10.4979681897        4.5852279829       31.2857576528
  H         9.5766824878        5.9826140216       31.7188083784
  H        12.0080624047        4.9611573285       34.2730813659
  H        10.9867980611        6.4561174843       34.3175977409
  H        10.2551135106        5.0577403310       33.8175720545
  C        10.3655397447        5.1574377725       28.8693025364
  H        12.0923126467        6.1428554967       29.9314880195
  H        10.6714887940        7.1605693124       29.7953927953
  C        10.8081136559        5.6435130454       27.4245033256
  H        10.6579144833        4.1070016378       28.9883684893
  H         9.2861633642        5.4253009030       29.0012355227
  C         9.9968415430        5.0277180686       26.3727753981
  H        11.8251320417        5.4154765012       27.2950641983
  H        10.7293178204        6.6632554161       27.3778786645
  C         8.7773823019        5.8749279700       26.0345287796
  H        10.6390162809        4.6509517995       25.5049695664
  H         9.7715396305        4.1327455261       26.8694901798
  C         7.6186355685        5.2205599066       25.2510172469
  H         8.3559025193        6.4149335816       26.9062196541
  H         9.1807004139        6.6674014598       25.4346576889
  C         7.1939489501        3.8602138493       25.8451911151
  C         8.1935158546        4.5439554526       24.1121011187
  C         6.3852333656        6.1286516621       25.0200349760
  C         7.5254592572        2.7722060066       25.0490889752
  C         6.6651068705        3.4956884558       27.0801242079
  C         8.1819507207        3.1899923332       23.9677653623
  C         8.7218055674        5.1768636488       22.9810317267
  H         6.6902385363        6.8882592275       24.2864915925
  H         6.0765254140        6.6533924355       25.9546996287
  C         5.1329058960        5.4803265562       24.4025556429
  S         7.1472785068        1.2263929780       25.8075475942
  C         6.5137168694        2.1244747343       27.1947292945
  H         6.4221319914        4.2320468025       27.8143917367
  C         8.5894921554        2.6020489174       22.8261666951
  H         8.7369211139        6.2779250977       23.0544917601
  C         9.1565679221        4.5769403804       21.8290597650
  H         5.3527977575        5.2169995183       23.3714192924
  H         4.8893220756        4.6022336467       24.8733455697
  C         3.9528302000        6.4435691627       24.4767269450
  C         6.0885017710        1.3661859566       28.4508892249
  C         9.1236876833        3.2484818706       21.6589693847
  H         8.4406551844        1.5283778658       22.7715044783
  C         9.5738574765        5.0154499301       20.6024845218
  H         3.2057803363        6.1532542252       23.7961569811
  H         4.3899494158        7.3330790698       24.1838283650
  C         3.2728430824        6.5918319448       25.7930012555
  C         6.1637641230       -0.0357767836       28.6514090029
  C         5.5756838033        2.1575834873       29.6112958405
  C         9.5317426106        2.5489002802       20.4068737584
  C         9.8249185693        3.9310397169       19.7537228094
  S         9.4822350878        6.4999429106       19.7621426072
  H         2.6971745644        7.4470782947       25.7944724281
  H         4.0696270061        6.8386504798       26.4749589436
  C         2.3659120900        5.3901343036       26.1746755314
  N         6.5090533655       -1.0508580680       27.7527627201
  C         5.9302155449       -0.6095768716       29.8776871200
  C         5.2717975944        1.5218448106       30.7774906404
  H         5.6198527711        3.2163746673       29.5558645479
  C         8.3602774057        1.8539993199       19.6598769220
  C        10.8041820342        1.6854060050       20.4033099346
  C        10.1091957278        4.2989311232       18.4420384948
  C         9.9769014630        5.6650303864       18.2894160986
  H         1.7276620830        5.0052631865       25.3296772012
  H         3.0247984499        4.5527597997       26.3120622277
  C         1.6051277108        5.6741649278       27.4273979876
  S         6.5504229475       -2.4955462513       28.4461612293
  N         6.1402896023       -1.9950888928       29.9526219300
  C         5.5199831401        0.1129681572       31.0182450211
  H         4.8053334361        2.1163653988       31.5922378563
  H         8.1748362055        1.0280235404       20.3491154460
  H         8.6761797952        1.5856760026       18.6894546931
  C         7.0878565185        2.7894181132       19.5899608375
  H        10.9158203077        1.2784258588       19.4128418640
  H        10.6719352411        0.8137527783       21.1405268666
  C        12.1094609673        2.4950488496       20.7779981502
  H        10.1759355116        3.5541994387       17.6819389248
  C        10.1200194297        6.5499333559       17.0523416185
  H         0.7790102881        4.9918860716       27.4942882188
  H         1.1507407166        6.6876213245       27.2505424319
  C         2.5516878536        5.5085774900       28.6200182365
  C         5.2531507525       -0.5861732152       32.2069346510
  H         7.1898749222        3.6159453911       18.9207274426
  H         6.7703095309        3.2139778366       20.5149138281
  C         5.9852886715        1.9369287196       18.9913080106
  H        11.9429728274        2.9346090562       21.7803727786
  H        12.3433318030        3.3381888757       20.1422742620
  C        13.3536433669        1.6036713747       20.9287782205
  C        10.1860145349        7.9671153668       16.9923518628
  C        10.5315525981        5.8045665185       15.8566211901
  H         3.0288437518        4.5437747372       28.5612608989
  H         3.3586735723        6.2064072281       28.4414383090
  C         1.9965583205        5.6015704946       30.0582715801
  H         5.3644996154       -1.6150694355       32.2504150181
  C         5.0091419345       -0.1619996895       33.4841023428
  H         5.3630570020        1.7393452783       19.8037069929
  H         6.4254947534        1.0628871239       18.6613432832
  C         5.1313912352        2.6655206752       17.8988514973
  H        13.1095254895        1.0368769997       21.8586995526
  H        13.5017644349        0.9211612618       20.0986404556
  C        14.4539238924        2.5646928733       21.2970832156
  N         9.9862715620        8.8651724010       18.0732496516
  C        10.4742904114        8.5473050924       15.7776323614
  C        10.7414239712        6.4288624154       14.6793191769
  H        10.4572316013        4.7092691651       15.7441592851
  H         1.0168327453        6.1961360772       30.1804648244
  H         1.7408469675        4.5659464530       30.3738707087
  H         2.7629469548        5.8948034624       30.8446782676
  S         4.7724482058        1.4682402447       33.9280855858
  C         4.9125787154       -1.1114709081       34.6033135119
  H         5.1756702553        3.7444063712       17.9249972892
  H         5.4657633034        2.3492956885       16.9318754476
  C         3.6478044299        2.2929641213       18.0159187462
  H        14.2244095633        3.6120865614       21.1325441169
  H        15.1801352680        2.3312808674       20.5709855857
  C        15.1443242474        2.3171269928       22.6299283268
  S        10.0861662824       10.3517071788       17.4350676130
  N        10.5900079706        9.9754018437       15.9242310802
  C        10.8333141465        7.8959307041       14.5425316228
  H        10.8317859765        5.8235644717       13.7730791374
  C         4.4992812425        0.8359395587       35.5257582625
  N         4.5530385793       -0.4492853008       35.6984142622
  O         4.9532909499       -2.3584309185       34.4823105128
  H         3.0737795110        2.9127234080       17.3082904446
  H         3.3384387563        2.5418305563       19.0323560186
  C         3.2686170794        0.8442009691       17.6626008840
  H        14.3987644699        2.3487458173       23.3921761117
  H        15.6511770981        1.3826200035       22.5782715993
  C        16.1718649459        3.4851462401       22.8252974016
  C        11.0459719446        8.7209907438       13.3904390734
  S         3.8751977245        1.7739018424       36.9013040053
  C         4.4543578687       -1.0606615370       37.0185007905
  H         2.8421644533        0.7074964238       16.6254874921
  H         4.1800058443        0.1778080247       17.6969482287
  C         2.1888789629        0.1314271749       18.5869853735
  H        16.3680728994        3.7259978491       23.8481938237
  H        15.6888547105        4.4101727303       22.5070445619
  C        17.4469582166        3.3941873283       22.1754231512
  H        10.7000953935        9.6801107978       13.4815032815
  C        11.6779677046        8.5082309258       12.1732574786
  H         3.6557918185       -0.6298641385       37.5829278148
  H         4.0639554787       -2.0589967529       36.7929005334
  C         5.7830944469       -1.0976092491       37.7847030652
  H         1.2007869723        0.6859741402       18.6086829290
  H         2.5022779720        0.0690303659       19.6271231919
  C         1.8340761623       -1.2971578673       18.0388580966
  H        17.3207646089        3.0902351286       21.1267735394
  H        17.8976174580        4.3697809154       22.1744096315
  C        18.2709042496        2.2776343550       22.8729284822
  S        12.3443978640        7.0092176549       11.7158121776
  C        11.7469769937        9.5779038226       11.2311587875
  H         6.3426899970       -2.0465801878       37.7570721809
  H         6.4984337174       -0.2689958435       37.4183859774
  H         5.7545840147       -0.7800073514       38.8274371805
  H         1.3528827693       -1.2071722151       17.0722740696
  H         1.0471513077       -1.6399700167       18.6618398128
  H         2.6716561607       -1.9642801636       18.0685138433
  H        19.3155647935        2.3562217126       22.5385372432
  H        17.8249864848        1.2627140080       22.6843480238
  H        18.3446208208        2.5295214413       23.9282006801
  C        12.8905407240        7.8841358563       10.2708611139
  N        12.5288418774        9.2035566817       10.1696744481
  O        11.1941906298       10.6747809781       11.3295747817
  S        13.9153488224        7.1893957903        9.0053853760
  C        12.7290449784       10.0284389206        8.9367812586
  H        13.0438464943       11.0378948330        9.1502045225
  H        13.5679656010        9.5747601755        8.4032608726
  C        11.4622265406       10.0376999803        8.1107416523
  H        10.5361914978       10.0706439743        8.6454758163
  H        11.5122787644       10.8081132823        7.3472362381
  H        11.3823490160        9.0990319888        7.5570754800
  H         4.0854974878        2.1948538116       12.2052685795
  C         3.8198144546        3.2356111307       12.2850938062
  H         4.7337804009        3.7249317635       12.4582815335
  C         3.3925752821        3.8237922004       10.9335640171
  C         2.6935496635        3.4715271739       13.2857266025
  C         4.5236071933        4.0346306128        9.8911053349
  H         3.0844162705        4.8273589494       11.1769982932
  H         2.6824724149        3.0592440119       10.5665333672
  H         2.3318192350        2.5842169957       13.7627061930
  H         1.9230339261        3.9184086829       12.7691746818
  H         2.9746835406        4.2983579584       13.9539950683
  C         4.7416766115        2.7758712299        9.0068746123
  H         4.2786621701        4.8714346104        9.2025312809
  H         5.3464525566        4.3871073918       10.4702824871
  C         5.8603818851        2.8027868862        7.9936975391
  H         3.8608479433        2.3517729581        8.5327821934
  H         5.1270705624        2.0276375489        9.6918159099
  C         7.0343441949        3.7515619962        8.1819605173
  H         5.4778983312        3.2476277937        7.0820309398
  H         6.2251050907        1.7847989022        7.7141006120
  C         8.1802987805        2.9100040335        8.6331376291
  H         7.2300895457        4.0692951552        7.1294406366
  H         6.7424319346        4.6814427535        8.7307556419
  C         9.4342447384        3.7250968074        8.8711291445
  H         8.5669451063        2.2256657190        7.9404143991
  H         7.8982230803        2.4045643414        9.5275306074
  C         9.1522029009        5.0765031973        9.5212186057
  C         9.9097001636        4.4064677665        7.6280039049
  C        10.6288985426        2.9222468686        9.5978640853
  C         9.5021289338        6.1997590962        8.7614519692
  C         8.7202001017        5.5182853448       10.7467645833
  C         9.9622837630        5.7665179021        7.5171508018
  C        10.2622171384        3.7533716736        6.4983316100
  H        10.2530748169        2.2618883942       10.3641229093
  H        10.9247512108        2.1959920401        8.8970948642
  C        11.8528314762        3.7300854108       10.0783736554
  S         9.0077010362        7.7697774615        9.4098940974
  C         8.5120340176        6.8733270238       10.8322847648
  H         8.5526831151        4.7089561375       11.4487368407
  C        10.5129415277        6.3248234173        6.3849540283
  H        10.1644725772        2.6944261430        6.5537970040
  C        10.6135438415        4.2329107952        5.2681500626
  H        11.5774936011        4.5021144590       10.7922048125
  H        12.2227946564        4.2801956436        9.2719981714
  C        12.9304281380        2.8299397204       10.6764709330
  C         7.9656852852        7.5444391127       12.0181163777
  C        10.7773776790        5.5871867908        5.2083163520
  H        10.7124517574        7.3998358315        6.3793260773
  C        11.1064894355        3.7614642991        4.0508872881
  H        13.8885210709        3.4054986642       10.6177524422
  H        13.0352005419        1.8469892640       10.1810488251
  C        12.6604774767        2.3485154547       12.1599740323
  C         7.9286747311        8.9163658870       12.3177980633
  C         7.5897088935        6.5926788610       13.1391632182
  C        11.2442255906        6.2350680497        3.8659933893
  C        11.3638567944        4.8203202077        3.2100096619
  S        11.4179480088        2.2564988830        3.3703396470
  H        11.6265250094        2.6145921253       12.4649140628
  H        12.5978293951        1.2238544977       12.1509257655
  C        13.6655367712        2.8534281558       13.1405491438
  N         8.2008218784        9.9134972490       11.3961446066
  C         7.5886803418        9.3568050148       13.6160292187
  C         7.2369202144        7.0546650950       14.4195025700
  H         7.3951432974        5.5158628208       12.9555023491
  C        12.6033088454        6.9984155744        3.9591563602
  C        10.2082750975        7.1254904292        3.2091240444
  C        11.5945562748        4.4008816538        1.8836400249
  C        11.7369148552        3.0081801394        1.8309275272
  H        13.3036149272        3.8535564039       13.5234073926
  H        14.6676861888        3.0146063291       12.6444394129
  C        13.8001741754        1.8092026148       14.3313042904
  S         8.0214199551       11.3203683706       12.1972250166
  N         7.7156078930       10.7816939464       13.7447818884
  C         7.2630807941        8.5183155230       14.7473614676
  H         6.9388249021        6.3595591694       15.1754226573
  H        12.3962264256        8.0348937152        4.3127391804
  H        12.8820959559        7.2215287675        2.9401507490
  C        13.5220687795        6.3043249127        4.9734878656
  H         9.9021544871        7.9445468270        3.8610997984
  H        10.6670741601        7.7535965600        2.4359261595
  C         8.9038814947        6.3957604939        2.7984246123
  H        11.7579227570        5.1576555762        1.0818726988
  C        12.1137178443        2.2772520448        0.5943467054
  H        13.9833479329        0.7625558193       13.9825632532
  H        14.6677810889        1.9440323581       14.9106579811
  C        12.5976310940        1.7653590933       15.2520817901
  C         6.9747213408        9.1583955570       15.9712278719
  H        13.2587508657        6.6651996282        5.9675565502
  H        13.4367570797        5.1922985750        5.0927007342
  C        15.0347528790        6.6163435729        4.7665986259
  H         8.3943099567        5.9895713071        3.6670032079
  H         9.1391660817        5.5602044749        2.1751068817
  C         7.9669793532        7.2853687400        2.0029033631
  C        12.2812915464        0.8808809052        0.4662818058
  C        12.3439197793        2.9973874093       -0.7077768363
  H        12.5387526889        0.8323483176       15.7313940187
  H        11.6376402045        1.8781079968       14.7102091076
  C        12.8186979197        2.9337169174       16.2515966573
  H         6.9298684454       10.2439262131       16.0039151444
  C         6.7363222234        8.5873862975       17.1912640899
  H        15.2237711695        7.6427172455        4.7675685764
  H        15.2642946229        6.2490804619        3.7675553551
  C        15.9649977009        5.8058905018        5.6926358956
  H         7.7698445250        8.0973106592        2.5937225009
  H         8.4952137543        7.5030488154        1.1090486099
  C         6.6264276277        6.6070588466        1.6458207103
  N        12.2067705965        0.0922286977        1.5360479513
  C        12.5164731188        0.1892209409       -0.7264506167
  C        12.5802867673        2.3385836338       -1.8973049305
  H        12.1912033754        4.1011684078       -0.6215986071
  H        13.7749096169        2.7818890167       16.7423521811
  H        12.0348193411        2.9513990433       17.0568813609
  H        13.1182408568        3.9009278971       15.7408571203
  S         6.5379179851        6.9243940576       17.4975233117
  C         6.6375137870        9.4359488839       18.4271672259
  H        15.3254747537        5.2603602531        6.3919372131
  H        16.5010814345        5.0189888908        5.1301372931
  C        17.0484157613        6.6100078153        6.5091525881
  H         6.1457880835        6.1342407559        2.5110377318
  H         6.7527554581        5.8061012010        0.9093189873
  C         5.5854462469        7.5766256256        1.2523454013
  S        12.3826857257       -1.4051842260        1.0500816393
  N        12.7676048420       -1.1028801508       -0.5280705738
  C        12.6623272275        0.8421092310       -1.9737670283
  H        12.6466923047        2.9156152022       -2.8433874788
  C         6.3114288478        7.4145034704       19.2089264809
  N         6.3487625439        8.6908676550       19.4927195776
  O         6.8778345025       10.6516132781       18.3783849950
  H        17.5257993921        7.2557526819        5.7735609582
  H        16.6045216497        7.2530283735        7.2353483576
  C        18.1762474357        5.7301594869        6.9818433762
  H         5.9404605544        8.1852475656        0.4493805961
  H         4.7488800507        7.0457892612        0.7623075825
  C         5.0052754018        8.2520942700        2.4332382986
  C        12.8622613944        0.0720998451       -3.1715897342
  S         6.3347519801        6.2721581917       20.5627089103
  C         6.3267407180        9.3198288139       20.8197307055
  H        17.9183146486        5.0252536019        7.8380849705
  H        18.3936208869        5.0648625799        6.2073162154
  C        19.3746202269        6.6324077421        7.2930361284
  H         5.7694797452        8.6030258817        3.1218418583
  H         4.4891474345        7.4954169892        2.9947205038
  C         3.9201233586        9.2500625271        2.0404348685
  H        12.4420552404       -0.9354839813       -3.0671243650
  C        13.4959277238        0.3259435733       -4.3183484771
  H         5.5069911090        8.8226739452       21.3655285055
  H         6.0368536103       10.3756262123       20.8139214797
  C         7.6889615662        9.1773481424       21.5652086940
  H        19.8695152810        6.2915071568        8.1444304062
  H        19.0164000199        7.6282133338        7.5142875618
  C        20.3867286381        6.7536450290        6.1631831404
  H         3.3057215435        8.8892171121        1.1628765898
  H         3.1678224460        9.3754140922        2.8554227226
  C         4.5348064802       10.6053744934        1.6201941838
  S        14.0888819611        1.8589668519       -4.7969916364
  C        13.5577135205       -0.6622241334       -5.3701877510
  H         8.4987759207        9.1700726046       20.8422919920
  H         7.6880104401        8.3081294873       22.2119738411
  H         7.8500506707       10.0883578325       22.2202182715
  H        20.7293328555        5.7311737880        5.9200446383
  H        20.0976402004        7.4785774074        5.3486338039
  H        21.3558770835        7.1600566028        6.6064036728
  H         4.8324603148       11.1019415898        2.5489225436
  H         5.3888333202       10.4673707218        0.9524135757
  H         3.7513347964       11.2011065557        1.1607068476
  C        14.3813258028        1.1915565645       -6.3883794468
  N        14.2195415944       -0.1715875914       -6.4342492563
  O        13.1824772310       -1.8130324321       -5.1815614142
  S        15.1352711260        1.9727313057       -7.7549781117
  C        14.4910234149       -0.9279478108       -7.6339448588
  H        14.6328869051       -1.9737182443       -7.3030803021
  H        15.2914509996       -0.6444236067       -8.2454102440
  C        13.2403342494       -0.8616162105       -8.5658902094
  H        12.9238245852       -1.8164769271       -8.8490354507
  H        13.3844218178       -0.4397484197       -9.5839545094
  H        12.3428158495       -0.4439301899       -8.0728234167
