352
 i =     6900, time =     3450.000, E =       164.8068709733
  H        12.0349888897        5.0857942030       31.4903666946
  C        11.0845529553        5.2124996065       32.0866736561
  H        10.7980156762        4.1046361153       32.1766138493
  C        10.0819657536        5.9069167191       31.2361451029
  C        11.2936141249        5.6959124181       33.4868308994
  C        10.0310170522        5.3698075987       29.8164409965
  H         9.0557609488        5.7863619101       31.6186205537
  H        10.3353839988        6.9714206507       31.4238859208
  H        11.6352513867        6.7037226806       33.3789148119
  H        10.2770086418        5.6869521933       33.8468068271
  H        12.0496863880        5.2020512179       34.1114957214
  C        10.7661642986        6.3471959008       28.8511325639
  H         9.0298023024        5.3069834708       29.4710798944
  H        10.4419064861        4.3531210057       29.8025460769
  C        11.0190090779        5.6966598311       27.4517372471
  H        10.0394172408        7.1646966595       28.8193362618
  H        11.6483150883        6.6953549422       29.2976092711
  C         9.8819107897        4.9897429318       26.8320824641
  H        11.7820809137        4.9641704348       27.6386923902
  H        11.3867216007        6.3100627144       26.6973883441
  C         8.8151367102        5.9611624363       26.2972748923
  H        10.2844730827        4.3811002643       26.0454160776
  H         9.5392135128        4.2045670735       27.5061018745
  C         7.7143646237        5.2378957753       25.4302569689
  H         8.2692962319        6.2885696492       27.1655639943
  H         9.2357604805        6.8004030417       25.7546492685
  C         7.3905725193        3.8672826046       26.0486979770
  C         8.2737631143        4.5914184582       24.1954762760
  C         6.2471585665        5.9220827409       25.3301979359
  C         7.5487356844        2.7593952999       25.2485813489
  C         6.7612340270        3.4517080514       27.2748669575
  C         8.1547390197        3.2068359832       24.0737823577
  C         8.6060114207        5.2996027111       22.9844567800
  H         6.4637671454        6.7660340857       24.7124822664
  H         5.7799855821        6.1370058599       26.3061961560
  C         5.0470042434        5.0389165750       24.7565426983
  S         7.0463295501        1.2540387870       25.8321246233
  C         6.5331121291        2.0762717015       27.3121164637
  H         6.3747479234        4.0694159462       28.0857426885
  C         8.5912061244        2.7066047008       22.8982129951
  H         8.3381794761        6.3540578160       22.9294213248
  C         8.9495488994        4.7007744386       21.8352743934
  H         5.3569239703        4.4743999723       23.9126800766
  H         4.5815800642        4.4569086679       25.5527677397
  C         3.9361183354        5.8582574392       24.3437074826
  C         6.0775130075        1.3642895944       28.5702871307
  C         8.9778909464        3.3695105078       21.7783917222
  H         8.5408341273        1.5587080782       22.9888199801
  C         9.4022855618        5.0252909715       20.5755498314
  H         3.1417212940        5.4869650724       23.7081827283
  H         4.2869111457        6.4746895750       23.5010825571
  C         3.2226918368        6.5541978671       25.4846044905
  C         6.1427582141       -0.0803954123       28.7313467883
  C         5.4929784096        2.1110291936       29.6627569960
  C         9.3879146427        2.5796060827       20.5186905669
  C         9.8117251348        3.9031976180       19.9064769441
  S         9.6955451204        6.5306556516       19.8115817159
  H         2.6711756452        7.2333836340       25.0064170894
  H         3.8894239908        7.0506310584       26.1694617000
  C         2.1221141757        5.6000822312       26.0272244104
  N         6.3824218795       -1.1035230144       27.6992199007
  C         5.7875946119       -0.7121180548       29.9531161557
  C         5.2462197389        1.5250597551       30.8771200508
  H         5.3338925773        3.1186744982       29.5291666912
  C         8.2055964401        1.7516857575       19.8214176188
  C        10.7341341057        1.6574168623       20.6864680250
  C        10.3344701948        4.3497100056       18.5835149231
  C        10.4114894655        5.7073048937       18.3948718293
  H         1.2228176390        5.5182324419       25.3401036514
  H         2.4034082027        4.6441990279       26.0892817595
  C         1.7568759116        6.1693788177       27.4154264178
  S         6.2594992154       -2.5447209672       28.3960753424
  N         5.9031629470       -2.0957421363       29.8571491452
  C         5.4743931922        0.0915502295       31.0795236221
  H         5.0337999686        2.0754404111       31.6934763325
  H         7.8933527505        1.1616789978       20.6251095737
  H         8.6065793041        1.0016540782       19.1997375761
  C         7.0814834615        2.5983049473       19.2613833650
  H        10.8422862371        1.2371577741       19.7421892134
  H        10.5296360662        0.6900400498       21.2238282472
  C        11.9835414129        2.4574872486       21.2643397528
  H        10.6742934784        3.5853517953       17.9445736510
  C        10.5289145364        6.4261518844       17.0749686675
  H         0.7436199017        6.6199421248       27.3011427165
  H         2.3606873967        7.0115953377       27.6532491181
  C         1.8673916216        5.0895047207       28.5436366573
  C         5.2373489966       -0.6188157838       32.3394536562
  H         7.4303205857        3.3748356980       18.5727628822
  H         6.7697964719        3.2023014999       20.0227286440
  C         5.8764527585        1.7042719467       18.8877388641
  H        11.6313843185        3.0691042437       22.1364385771
  H        12.3871739747        3.1569397981       20.5471079397
  C        13.0787833738        1.4890999149       21.5618882111
  C        10.4949581791        7.8045707257       16.8461903064
  C        10.6249801776        5.6065229867       15.8778538651
  H         1.1517954742        4.3215384214       28.6323970802
  H         2.7727905521        4.4804502397       28.4025405161
  C         2.0529545132        5.6345848509       29.8293930755
  H         5.5234267247       -1.7039433219       32.2786833399
  C         4.8921340509       -0.3013742499       33.6739924314
  H         5.5805781199        1.0243343914       19.6437633508
  H         6.2697413562        1.1274162686       18.0361543343
  C         4.6272454492        2.5263415163       18.5168920399
  H        12.7667900387        0.9803201045       22.4633525532
  H        13.1146038535        0.7742796426       20.7486340673
  C        14.4545353035        2.2879057329       21.7200082676
  N        10.0236549705        8.7545164180       17.7441052338
  C        10.6085511956        8.4583018746       15.6383991255
  C        10.7881114307        6.1647266078       14.6421829147
  H        10.6991384737        4.5123297762       15.9818774140
  H         2.0966808175        4.8701924323       30.6072529345
  H         2.8838530771        6.3182678312       29.8543665374
  H         1.1118006997        6.2417863841       29.9350910649
  S         4.6047901013        1.3212344270       34.2247666813
  C         4.7927272385       -1.3446013697       34.7542609333
  H         4.4157510999        3.3195747597       19.1988829518
  H         4.7786046309        3.0694756818       17.5894602769
  C         3.3112415204        1.7318994708       18.3314899205
  H        14.5860377441        3.1589647614       21.0998260847
  H        15.2484949598        1.7709557492       21.2855452653
  C        14.8913620981        2.5443613239       23.0774360250
  S         9.9418336926       10.2901172733       17.1058884481
  N        10.2209512900        9.7515244833       15.5974543726
  C        10.8925256975        7.7066899386       14.4471987702
  H        10.8645673742        5.5468339099       13.7173746401
  C         4.4947967238        0.6163457367       35.7813466867
  N         4.5681799063       -0.7005524974       35.9037634947
  O         4.9613308212       -2.5641289990       34.5859044117
  H         2.5721830164        2.4879938213       18.0947704269
  H         3.0307940911        1.4176205201       19.3328114273
  C         3.2890979640        0.5231199410       17.4002556866
  H        14.1696787019        3.1493224643       23.6328793848
  H        14.8650462327        1.5824985867       23.5892575573
  C        16.2796486643        3.2590981536       23.0926254366
  C        11.0586464339        8.3894498338       13.2308371600
  S         4.0264202336        1.6362962747       37.1647531686
  C         4.4298038908       -1.3556904368       37.2275008320
  H         2.3938466365        0.5224860172       16.8338885213
  H         4.1451041304        0.5708128679       16.7824467265
  C         3.4884371970       -0.7766087868       18.1995965876
  H        16.2713665272        4.1897158664       23.7139658845
  H        16.2802781846        3.6417047464       22.0858844535
  C        17.4697909394        2.4030262285       23.5146835686
  H        10.8291199422        9.4521068306       13.2294235995
  C        11.3750506769        7.9915269558       11.9487163629
  H         3.4590829728       -0.9831395468       37.7069855945
  H         4.3697160756       -2.4082802897       37.1935011735
  C         5.6978036758       -1.1155994031       38.0404218276
  H         4.3529767643       -0.6554596599       18.8326342515
  H         3.7809510660       -1.5222204730       17.4290253939
  C         2.2546048070       -1.3182916601       18.9010403766
  H        17.9689295653        3.0656886014       24.1988549596
  H        17.0816825939        1.5318531506       24.0617478297
  C        18.3838790192        2.0412782256       22.3949915406
  S        11.8261250845        6.3618302649       11.4304170896
  C        11.2341335004        8.9652357685       10.8413797679
  H         5.3143219692       -0.3733256202       38.8396039621
  H         6.0117022569       -2.0292405553       38.6430520967
  H         6.6000847070       -0.8211423023       37.5997406448
  H         2.4776885764       -2.0371341571       19.7080646171
  H         1.5826973815       -1.8505014602       18.1752522039
  H         1.7109233607       -0.4117469597       19.1488935606
  H        18.7943843540        2.9013230094       21.9148311368
  H        18.0422722568        1.4993573372       21.5461078179
  H        19.2127302786        1.5085914925       22.7030810761
  C        12.0968236411        7.0843961134        9.8522393588
  N        11.8971461795        8.4222164864        9.8364250567
  O        10.9023700349       10.0993350731       10.9800908952
  S        12.7334440400        6.3041492960        8.4153482742
  C        12.0149089849        9.2507800356        8.5482341992
  H        12.0295949339       10.2946799933        8.7802009097
  H        12.8876742256        9.0920440424        7.8522643634
  C        10.7052301261        9.1628888217        7.7325372025
  H        10.7651615991        9.8257632102        6.9596899818
  H        10.4113934238        8.2022893690        7.2687825466
  H         9.9135095847        9.6286765206        8.2525913998
  H         5.1170980215        1.9979675670       12.5631174811
  C         4.1729680618        2.5485643381       12.6802492533
  H         4.3318386942        3.6099658453       12.7941638468
  C         3.1897634677        2.3883563180       11.5664678153
  C         3.5673076818        2.3719687326       14.0682268216
  C         3.8385824612        2.6060669607       10.1313304507
  H         2.4845808264        3.2073596288       11.5748404755
  H         2.7131707170        1.4751740899       11.5843463698
  H         2.6601714150        1.6453557684       13.9930471114
  H         3.0438331686        3.2457353451       14.3769403832
  H         4.2875661798        2.0840365855       14.8038888346
  C         4.4972200819        1.3373419131        9.6013545948
  H         3.0076340879        2.9245448147        9.4648939616
  H         4.4483934236        3.5379692438       10.1890130519
  C         5.2517173147        1.5692995854        8.2631502696
  H         3.6848084796        0.5941679342        9.6088792164
  H         5.0728965749        0.9282038078       10.4580228382
  C         6.5587758245        2.4175298678        8.1884146770
  H         4.4724567948        1.7575079854        7.5014879157
  H         5.5898766858        0.5497150052        7.9842965652
  C         7.7567567728        1.7513639492        8.9187233758
  H         6.7389269998        2.6681226099        7.2188125725
  H         6.2885477841        3.4059729117        8.6322058786
  C         8.9872785939        2.7783898965        9.0393479874
  H         8.1060145259        1.0068401015        8.1581652249
  H         7.4769863649        1.3502842110        9.9423775998
  C         8.6428577278        4.1642367820        9.6898397975
  C         9.3593434912        3.4337709293        7.7453673866
  C        10.3261098688        2.1472276403        9.6729267375
  C         8.6915881769        5.2562945240        8.8176560031
  C         8.1947555918        4.5249603359       10.9612883354
  C         9.3131344887        4.8200569978        7.6268183484
  C         9.8146656764        2.7876149368        6.6130453098
  H         9.9549544751        1.5670412198       10.5638595520
  H        10.7301179928        1.4702306320        8.9832304988
  C        11.3851434158        3.1306864918       10.0099229248
  S         8.3165266392        6.7355096929        9.5379479241
  C         8.0794024474        5.9231586145       11.0517151860
  H         8.2219276244        3.7779184088       11.6536736839
  C         9.7079988864        5.4102657353        6.4036006563
  H         9.6706985769        1.7155064984        6.5841119689
  C        10.2130321531        3.3707666224        5.4133687186
  H        11.0221542737        3.9510926730       10.5936089394
  H        11.7972763996        3.5388170486        9.1095625249
  C        12.4956663786        2.4600664497       10.8808235304
  C         7.6915352191        6.6840959272       12.2923149814
  C        10.2125171873        4.7185764288        5.3126171445
  H         9.4443166836        6.4448678365        6.2785644619
  C        10.7051318827        2.9580314741        4.2232784514
  H        13.4089074099        3.0169135145       10.8105517561
  H        12.6938379502        1.5031849996       10.4465539683
  C        11.9350484111        2.1797517420       12.2365189757
  C         7.7406714614        8.0879944058       12.5851264740
  C         7.2451435830        5.8933106900       13.5479126106
  C        10.6471797225        5.4072171030        4.0454739525
  C        10.9446740944        4.0301358190        3.4374406012
  S        11.0773585769        1.4216617665        3.4724874086
  H        10.9732436503        2.7765341571       12.4913638823
  H        11.9138172779        1.1399959052       12.3003245130
  C        12.9458217393        2.3047201711       13.2873610497
  N         8.0389135478        9.0624884689       11.6065042459
  C         7.5262223035        8.5870006937       13.8331055829
  C         7.0167937647        6.4079263406       14.8006191921
  H         7.1244427088        4.8044443703       13.3319846604
  C        11.9153007908        6.3014336302        4.4315757051
  C         9.4497309808        6.2713935685        3.3572019262
  C        11.1839739442        3.6078795977        2.1286564521
  C        11.4017898526        2.2501208420        2.0402810636
  H        13.1566949972        3.3554318220       13.2953082466
  H        13.9411284563        1.7841246681       13.1311093998
  C        12.4064230410        1.9322239260       14.5794308437
  S         8.0304904283       10.5091351896       12.3606333803
  N         7.6043161238        9.9702920324       13.8645544736
  C         7.2763774528        7.8330568926       15.0173799251
  H         6.8332160577        5.6965043231       15.6760658362
  H        11.6381245266        6.8523899327        5.3171943007
  H        12.0757882940        6.9232340214        3.5614727725
  C        13.2234419934        5.5276692450        4.6358971316
  H         9.0089621950        7.0272365819        4.1095222474
  H         9.8969805744        6.7552587863        2.6347377631
  C         8.2134121727        5.4054178853        2.9243783666
  H        11.1611069569        4.3305550924        1.2227476872
  C        11.6973188084        1.4554242513        0.7620167671
  H        11.6973459724        2.7190661358       14.8178511137
  H        11.9070960532        1.0086970661       14.6309862294
  C        13.5890562294        1.7946541819       15.6220660538
  C         6.9690442015        8.4126590314       16.2832569502
  H        13.0305885076        4.9902461187        5.5213688923
  H        13.3543111259        4.7338116012        3.9032157358
  C        14.4799718523        6.4479411068        4.8747701412
  H         7.8516650362        4.9407758093        3.8873151613
  H         8.4432805621        4.6853487285        2.2091756983
  C         7.2953789412        6.4685927266        2.2622679410
  C        11.7068871922        0.0130949644        0.6280376411
  C        12.0973144221        2.1655543212       -0.4584676312
  H        14.3589543922        2.5463362628       15.4284738589
  H        13.9050299447        0.7247976652       15.5493138179
  C        13.1340055579        2.2627296418       17.0236774881
  H         7.0378447181        9.5498814260       16.1593676419
  C         6.7497507935        7.9011470266       17.4982005964
  H        14.3245892729        7.2579092471        5.5449963413
  H        14.9107302653        6.7442382896        3.9395152723
  C        15.5633580456        5.5619756829        5.3782711013
  H         7.0502901321        7.3255055100        2.9613095999
  H         7.8860353087        7.0979518622        1.4949366345
  C         6.1039027383        6.0753321013        1.4156136900
  N        11.4053559344       -0.9211625638        1.6170734120
  C        11.9972062602       -0.6242270214       -0.6135684450
  C        12.4194840734        1.5882126415       -1.6579247864
  H        11.9190684539        3.2619219737       -0.4168280815
  H        12.3564515011        1.6064821375       17.3139920691
  H        12.7385599211        3.2602233928       16.9281415564
  H        14.0783526818        2.3431520417       17.7386884827
  S         6.4154622417        6.2917822736       17.9611171924
  C         6.8391948226        8.8157516893       18.6633840999
  H        15.2033542486        4.6970710201        5.9392611734
  H        16.0527785813        5.3154555005        4.4459934835
  C        16.7453069830        6.1557968830        6.1913509551
  H         5.5946445088        5.2453561773        2.0167055130
  H         6.4103510460        5.6063110948        0.4860150141
  C         5.0678530964        7.2331609509        1.1797445325
  S        11.5588903413       -2.4358298830        0.9488144278
  N        11.8958239924       -1.9823403573       -0.5876336058
  C        12.2805975101        0.0737857565       -1.7817189426
  H        12.4761329606        2.2847249390       -2.4664429640
  C         6.2048655748        6.8994326296       19.5593547968
  N         6.3513861901        8.1818681062       19.7450236204
  O         6.9570575876       10.0293307304       18.5977351005
  H        17.2005841571        7.0044881932        5.6573657158
  H        16.4177858753        6.5996724887        7.0703584064
  C        17.7245613176        5.1430768461        6.7377429773
  H         5.7503305188        8.0439815102        1.1659758414
  H         4.5035502579        7.1863973337        0.1616264620
  C         3.9399424473        7.2913600574        2.2196140057
  C        12.5949996627       -0.6288668939       -2.9987079221
  S         5.7133740779        5.9937686617       20.9858939395
  C         6.2329387200        8.9159385836       21.0566937709
  H        17.3432489136        4.7073655030        7.6485307857
  H        17.8613172329        4.3524103872        6.0801903264
  C        19.0626703429        5.8075954322        7.1098206143
  H         4.3494279406        7.2663049424        3.2376778521
  H         3.3454594090        6.3983486420        2.0181933834
  C         3.1466319092        8.6102812208        2.0632729453
  H        12.2688505234       -1.7642443025       -2.9341971082
  C        13.1474794109       -0.2583733133       -4.2168697310
  H         5.7574600489        8.3873470554       21.7987903448
  H         5.8118909442        9.8969104689       21.0086895757
  C         7.6873075684        9.0421593342       21.7281868176
  H        19.3449212972        5.4351960802        8.0525345749
  H        18.8993203702        6.7985202388        7.1052236875
  C        20.1071677681        5.4223076874        6.0291278303
  H         3.0690453403        8.7453142242        0.9904408833
  H         2.1465300284        8.4946751326        2.4461249336
  C         3.8685997068        9.8925185261        2.5305703135
  S        13.6189045803        1.3913594562       -4.6979937239
  C        13.2121019746       -1.1074747292       -5.4267902798
  H         8.3382158879        8.3828822697       21.2889828908
  H         7.7643306991        8.6746700204       22.7955950392
  H         8.0972359748       10.0673032368       21.6173621577
  H        19.5711909627        5.2214553748        5.1156203975
  H        20.6259515983        6.3346198708        5.6972144695
  H        20.8045781513        4.5951086749        6.2753586480
  H         4.1903255157        9.7438622889        3.5604017957
  H         4.6742574432       10.0285587169        1.8651303627
  H         3.1344167839       10.7397714455        2.4622765984
  C        14.1482013815        0.7554775326       -6.2307583475
  N        13.9363217546       -0.5502780516       -6.3949686572
  O        12.8408403971       -2.2477739199       -5.3639651519
  S        14.6602609183        1.7268411307       -7.6455352586
  C        14.0954467470       -1.1653458738       -7.6465827583
  H        14.2249081105       -2.3252112264       -7.4102156842
  H        15.0366282816       -0.8411987017       -8.1994970250
  C        12.8315510197       -1.1087390188       -8.5473589516
  H        12.7526318522       -0.2459108237       -9.2819718790
  H        11.9808465160       -0.9470811308       -7.8852798525
  H        12.6386376739       -2.0204100536       -9.0834408130
