352
 i =    32400, time =    16200.000, E =        98.9444111582
  H        10.5797365145        4.8604994629       31.9571488542
  C        10.6780327459        5.8590700345       32.3204766556
  H         9.6120439075        6.1395668701       32.4691696199
  C        11.4320253780        6.5466826176       31.1339987421
  C        11.5452339128        5.8082940272       33.5738624774
  C        11.6880160394        5.6646990939       29.9638566931
  H        10.9939018449        7.5637927501       30.8057997103
  H        12.4254055813        6.7792618561       31.4280701352
  H        11.4082364728        5.0650952951       34.3906407229
  H        12.4453052578        5.4851778116       33.2319170112
  H        11.5829008553        6.7051389090       34.0752418946
  C        10.4870749926        5.5814468382       28.9854811832
  H        12.0641919677        4.6913836223       30.1281982103
  H        12.4569502776        6.1495146908       29.4110594877
  C        10.8203381707        5.4271802472       27.5789756522
  H         9.7307224252        4.8859477655       29.2417483659
  H         9.9407486735        6.5217366723       29.0791941090
  C         9.7246643106        4.8074982912       26.5988556613
  H        11.5625273617        4.6492764820       27.5444044164
  H        11.2217576042        6.3645741523       27.2405267314
  C         8.5880188466        5.8343197474       26.3860749189
  H        10.2001865737        4.5473261959       25.6603272416
  H         9.4258120448        3.8114692118       27.0729645399
  C         7.4119035028        5.1487259781       25.7206543266
  H         8.3448041049        6.2842917081       27.3259415732
  H         8.9344427727        6.6540361381       25.6388699784
  C         7.0920987079        3.8006249207       26.4167148893
  C         7.7603976140        4.4621583541       24.4201975623
  C         6.1187311754        6.0240378778       25.7233468420
  C         7.2597923807        2.7244698732       25.5268173743
  C         6.6148392350        3.3022357684       27.6537416011
  C         7.7213908632        3.0824710391       24.3093320963
  C         8.1468874007        5.0893209447       23.2163521881
  H         6.2955880465        6.8820850268       25.1656717455
  H         5.8564434759        6.3897285221       26.7430614578
  C         4.8243965996        5.2563356457       25.1943343852
  S         6.8404823834        1.1802011443       26.2217950012
  C         6.3442948315        1.9513665459       27.7179721749
  H         6.3415261893        4.1168868838       28.3910837731
  C         8.1462745776        2.4736834529       23.1708047395
  H         8.2149488565        6.1798092486       23.2448837071
  C         8.5408022815        4.4131884117       22.0512732979
  H         4.9685281892        4.9261810494       24.1734184350
  H         4.6406451561        4.4127623574       25.8669188851
  C         3.5166608260        6.0000246753       25.2139652740
  C         5.8148491091        1.2706059644       28.9328302096
  C         8.5819310371        3.0820618181       21.9681925462
  H         8.1305144721        1.4350915059       23.1393905780
  C         9.0029390411        4.7740255509       20.8174431518
  H         2.8451922232        5.6184794521       24.4576034605
  H         3.6290014067        6.9913007144       24.7416998699
  C         2.9617905134        6.1515812703       26.5937005885
  C         5.8486504615       -0.1111676434       29.2641862924
  C         5.2779799258        2.1588853589       29.9958893851
  C         8.9971495573        2.3760697673       20.7062016410
  C         9.2152192001        3.7215569228       19.9629677620
  S         9.2375762929        6.2441806746       20.0511395982
  H         2.3430015065        7.0497589442       26.6188063355
  H         3.6967757185        6.1822365681       27.4336125704
  C         1.9941100316        4.9704355988       26.9047872574
  N         6.0169671367       -1.0613469960       28.3458322465
  C         5.6887027916       -0.5908987948       30.5376808158
  C         4.9934334474        1.6633431628       31.2781650587
  H         4.9799190725        3.1831815325       29.8215481061
  C         7.8236767126        1.6082581260       19.9652764270
  C        10.2911841617        1.4335906584       20.9077609929
  C         9.5038136537        4.0775795792       18.6824646022
  C         9.5554982570        5.4481088056       18.5614831408
  H         1.2478876234        4.8431176545       26.1307266169
  H         2.5041886817        4.0001470635       26.8473379740
  C         1.2477076763        5.1277696648       28.2611860502
  S         6.0723515852       -2.5304898309       29.1136635822
  N         5.7807063689       -2.0132804389       30.6225267478
  C         5.2535873406        0.2212686973       31.5966350595
  H         4.5053605595        2.3873996049       31.9632369977
  H         7.5915643508        0.7243445156       20.5495913265
  H         8.1142348994        1.2845332494       19.0198310855
  C         6.5788957579        2.4151918734       19.7333669203
  H        10.5045813841        1.0678468981       19.9010484029
  H        10.0698280982        0.6307826368       21.5823834379
  C        11.4968041262        2.2033959757       21.4157791961
  H         9.5361053082        3.3659635406       17.9245191312
  C         9.7759803567        6.2401423575       17.3126050651
  H         0.8268947658        4.1408858310       28.4732243108
  H         0.4813047042        5.8951158065       28.2441697969
  C         2.1418140066        5.2854317755       29.4934091291
  C         5.0199436481       -0.4445894964       32.8489168595
  H         6.9306277965        3.2625090811       19.1045704545
  H         6.2061573945        2.9488979638       20.5763005525
  C         5.5286240551        1.6087785173       18.8891609488
  H        11.2781838401        2.5812580110       22.4290753440
  H        11.5701193475        3.1560018246       20.8721084912
  C        12.7259064479        1.2942833019       21.4618859212
  C         9.8608654345        7.6458731380       17.1341913626
  C         9.7534827829        5.4569919906       15.9966432273
  H         3.0491617383        4.6438671659       29.3954837235
  H         2.6147663645        6.2480514803       29.5126446462
  C         1.2984553245        5.0961343478       30.7920882617
  H         5.2889746956       -1.5389867581       32.8098672490
  C         4.7162633742        0.0805930818       34.0740673783
  H         5.1499465163        0.7161986657       19.4498162707
  H         5.9019917503        1.2264078628       17.8680135425
  C         4.3359545313        2.4394437346       18.4545989591
  H        12.5120609142        0.5809853224       22.2017571141
  H        12.8616723226        0.7756948229       20.5491712023
  C        13.9032386668        2.1341918481       21.8284645602
  N         9.6924991310        8.5792833268       18.1741151214
  C        10.1091919311        8.2558965833       15.9081776078
  C        10.1580645427        6.0950383081       14.7965542047
  H         9.6277318412        4.3876592130       16.0411943267
  H         1.2019072347        4.1079208719       31.2818966819
  H         1.6368279564        5.7192058153       31.6057850387
  H         0.3083496391        5.3169267427       30.5235298301
  S         4.4965911540        1.7036173331       34.4772523713
  C         4.6786327213       -0.8624691546       35.2258934548
  H         4.3616692670        3.3690872192       19.0592654024
  H         4.4243844349        2.7400260231       17.3995598674
  C         3.0423574077        1.7958328951       18.7478989636
  H        13.8795843208        3.1503721156       21.4727163765
  H        14.7398070131        1.8015523472       21.1701371928
  C        14.3128615442        2.1036789943       23.3106391306
  S         9.8508431591       10.0776897379       17.5255448225
  N        10.0291451435        9.6459899551       15.9950672734
  C        10.3577698367        7.5538354859       14.7334873421
  H         9.9915265245        5.5537830699       13.8931430295
  C         4.2349451136        1.1455223234       36.1555431185
  N         4.2324241446       -0.1698341999       36.3262901949
  O         4.9563725528       -2.0636280157       35.2234814784
  H         2.1185081053        2.3768586604       18.6081491431
  H         3.0828807518        1.5825017922       19.8485149300
  C         2.7622973580        0.4701281864       18.0148773747
  H        13.5008307886        2.6592731579       23.8163976879
  H        14.3144574468        1.1429359951       23.7895108207
  C        15.6218443536        2.8662032163       23.5013540444
  C        10.8134553869        8.2533486584       13.6051406694
  S         3.5120766564        2.1849249356       37.3738705685
  C         4.3423816325       -0.8654868335       37.5804299318
  H         2.1951785538        0.7334083472       17.1226444065
  H         3.6642708157       -0.0130467117       17.5781358208
  C         1.9571989636       -0.4932590581       18.9060194108
  H        15.3691064490        3.6726785163       24.1546891146
  H        15.8891044546        3.3776691580       22.5937083188
  C        16.7150685325        2.0100510178       24.1610731597
  H        10.7915725269        9.3112053486       13.7170556613
  C        11.1717485538        7.7895325239       12.4072794106
  H         3.8600980812       -0.4129348708       38.4427813756
  H         3.8488329916       -1.8478621159       37.4424255055
  C         5.7910233937       -0.9044206865       38.0184831004
  H         0.9829325741        0.0229878751       19.1675930005
  H         2.4879334874       -0.7339465888       19.7864219853
  C         1.6634162602       -1.7459642365       18.2146243472
  H        17.0497679697        2.5433824882       25.0072158306
  H        16.3587385651        0.9972087233       24.4721327699
  C        17.9157222033        1.8348491998       23.2465209386
  S        11.5857077876        6.2031303826       11.9176197346
  C        11.3492523417        8.8222659287       11.3835417581
  H         5.9890244294       -1.5158583237       38.9057156443
  H         6.5472331768       -1.3750789280       37.3484234119
  H         6.0041379425        0.0971482180       38.3040314950
  H         0.7940945730       -1.5816024179       17.6035616543
  H         1.3482882587       -2.5212725247       18.9455551335
  H         2.5251839504       -2.0824545285       17.7175092420
  H        17.7642954631        0.9242277371       22.6162245620
  H        18.8730777534        1.6336664132       23.7461004341
  H        18.0942355519        2.6335385794       22.4576762578
  C        12.0662430979        6.8941074437       10.3771826181
  N        11.9642624830        8.2565773585       10.3323153576
  O        11.0222686104       10.0095437748       11.5853116367
  S        12.7203789364        5.9715197555        9.0407184046
  C        12.4147675455        8.9783718985        9.1884319495
  H        12.4740892303       10.0354343116        9.5698847494
  H        13.4844559582        8.6182397606        8.9135266350
  C        11.5762805997        8.8758073754        7.9282655524
  H        11.1636132345        9.8186938092        7.6318277931
  H        12.1308789769        8.4419957384        7.0269772021
  H        10.6877005809        8.3388311582        8.2269301222
  H         2.9629454326        1.3164096586       13.8990720826
  C         3.6743372576        1.7219036949       13.1631521344
  H         4.4322840391        0.9739733733       12.9397072242
  C         3.0035190271        2.2754313889       11.9580370512
  C         4.2585725527        2.8204607402       14.0974625353
  C         3.9151073387        2.6815064906       10.7980023787
  H         2.6130540224        3.2215328709       12.2662003011
  H         2.1833994867        1.7257145625       11.6043621376
  H         3.6309266436        3.1346879855       14.9061919221
  H         4.4392625992        3.7267461957       13.5307448387
  H         5.0653341876        2.3549936836       14.6850595544
  C         4.4631346544        1.4513743527       10.0801881853
  H         3.3832820222        3.2283849114        9.9501645228
  H         4.7403560902        3.3622103714       11.0220411114
  C         5.1223137710        1.7203934835        8.7046515436
  H         3.6095332210        0.7558652702        9.8710393028
  H         5.2029197322        1.0098362300       10.7510923093
  C         6.4291313378        2.4883396448        8.7161344570
  H         4.4167741991        2.1640530285        8.0169260237
  H         5.3798425577        0.7475579100        8.2847253058
  C         7.5914846129        1.5835239064        9.1025780578
  H         6.6697381612        3.0425267628        7.7669389425
  H         6.3379905720        3.2258997567        9.5212707466
  C         8.8153733812        2.4066638029        9.5117785906
  H         7.7517020149        0.8971535967        8.2885878528
  H         7.3378547715        0.9549939660        9.9035311332
  C         8.5246485122        3.7421121263       10.2344150943
  C         9.3014966396        3.1587040766        8.2533122214
  C         9.8974292671        1.6123016708       10.2559363708
  C         8.8990137002        4.8351466612        9.4930578669
  C         7.9839325420        4.1566120798       11.4785617868
  C         9.3463668135        4.5381901104        8.2365411658
  C         9.8335195894        2.5507468074        7.0913913296
  H         9.4265610096        0.7630080362       10.8945935449
  H        10.5812333837        1.0941305323        9.6208182360
  C        10.8748413909        2.4088072268       11.2114612912
  S         8.6442130397        6.3396910534       10.2745814667
  C         7.9811173748        5.4976220830       11.6673338399
  H         7.6401928254        3.3149559011       12.0970310773
  C         9.8600760024        5.1978310050        7.1123844720
  H         9.9380467391        1.4358419311        7.1248642693
  C        10.2420310239        3.1976378455        5.9777965052
  H        10.3297965632        2.9912978176       11.9953946047
  H        11.3620190526        3.0988102094       10.5534312331
  C        12.0363335862        1.6187475748       11.8047009211
  C         7.4190889041        6.2190360732       12.8556814659
  C        10.2425551913        4.5727095064        5.9068890301
  H         9.8375911315        6.3111562216        7.1910579940
  C        10.7393241010        2.8504287074        4.7337496406
  H        12.6864620258        1.2676753772       11.0172087441
  H        11.6196956002        0.8292861314       12.3967511464
  C        12.7832406908        2.5398072687       12.7667557797
  C         7.3327223283        7.6315888221       12.9745619100
  C         6.9489618166        5.4283110290       14.0286657528
  C        10.5929305812        5.2593348324        4.6340613408
  C        10.8514182598        3.9235908222        3.8928246436
  S        11.1661502526        1.4227375513        3.9727700726
  H        13.3942089985        3.2653570611       12.2160569640
  H        12.2053117841        3.3170621289       13.2781006253
  C        13.6048891036        1.6604235083       13.7447070011
  N         7.6358755216        8.5624296761       11.9480323886
  C         6.9786974596        8.2811950380       14.2011155419
  C         6.5176922660        6.0706234910       15.2470259848
  H         7.0164103152        4.4052981436       13.9519605620
  C        11.9692283423        6.0559403571        4.7547431099
  C         9.4884255920        6.1219528097        4.0030193772
  C        11.3209957096        3.5678026998        2.5796233401
  C        11.4793288007        2.1965346211        2.4273067226
  H        14.3533539559        2.3185367493       14.0647809184
  H        14.0258886309        0.9391007688       13.1541286583
  C        12.9287561031        1.0369917550       14.9532026300
  S         7.6098413878       10.0489903885       12.5763473875
  N         7.1323100237        9.7195096971       14.1115854433
  C         6.6441850165        7.5429820038       15.3887397840
  H         6.2631489019        5.5177182766       16.1462029430
  H        11.8012972640        6.9763958984        5.3108738668
  H        12.3240307743        6.4547142170        3.8061749672
  C        13.1751147288        5.3454672249        5.3698952500
  H         9.2654180884        6.9491442876        4.6908196894
  H         9.8873925490        6.5567187661        3.1194072635
  C         8.2638125155        5.3131413816        3.6534617018
  H        11.5615513705        4.3734947087        1.8454312846
  C        11.7612295740        1.5189739282        1.1739639109
  H        12.0027359220        0.5446193522       14.6527487005
  H        13.5684402678        0.2808793691       15.3718992495
  C        12.7356571962        1.9587059646       16.0951243630
  C         6.4946200165        8.2988267543       16.5855439483
  H        13.0894026293        4.8896628768        6.3676189478
  H        13.5663422881        4.5931706054        4.7503104936
  C        14.3083050421        6.4015399006        5.5644512593
  H         7.7459426066        4.9025757731        4.5470091198
  H         8.5023494126        4.3963868143        2.9913326017
  C         7.4437294947        5.9972825038        2.6059377642
  C        11.8420254587        0.1400137076        1.0085538923
  C        11.8740158833        2.2579062317       -0.1488940562
  H        12.3296665711        2.9244632158       15.7272806155
  H        13.7284697897        2.3122720247       16.5387304364
  C        11.7396506289        1.5242763341       17.1645894906
  H         6.6674903724        9.2859247286       16.4102926988
  C         6.3419549282        8.0147284627       17.9027746492
  H        13.9308793752        7.0067835183        6.3483278103
  H        14.4899778275        7.0389792339        4.7654349099
  C        15.6397038618        5.6576651546        5.9280849233
  H         8.0368344514        6.8151738563        2.3596270585
  H         7.2891713541        5.4298797326        1.6501399210
  C         6.0642490930        6.4681205209        3.1795893718
  N        11.4762447620       -0.7707663688        2.0903945178
  C        12.1960196041       -0.5350453434       -0.1379688652
  C        12.2625120215        1.5887467337       -1.2949475354
  H        11.6620970812        3.3343233479       -0.1711776793
  H        11.2767789318        2.2810502796       17.5677885594
  H        12.1704909089        0.7412736287       17.8978246799
  H        10.8260261602        0.9840063044       16.6989136865
  S         6.0876607442        6.4641999869       18.6515807534
  C         6.4870998780        9.1502258065       18.8798237397
  H        15.2868819187        4.7368264813        6.3678469425
  H        16.1863393042        5.5287522388        4.9365977132
  C        16.6395769574        6.3751264281        6.8375537936
  H         6.1414074170        6.9417081434        4.1203000403
  H         5.3671354431        5.5937986123        3.4058683039
  C         5.4360404450        7.4252950067        2.1377138114
  S        11.6499677166       -2.3123246798        1.4562962071
  N        12.2030594123       -1.9210453067       -0.0024488268
  C        12.5180002852        0.1263729782       -1.3451077654
  H        12.3016225142        2.2801067335       -2.2015024581
  C         6.0598002054        7.3874610306       20.2360297968
  N         6.1980122692        8.7038916000       20.1421156270
  O         6.5075516205       10.3588237369       18.5546114342
  H        17.1833088349        7.1502326919        6.3148453908
  H        16.0061550121        6.8613299070        7.5782773413
  C        17.5189984569        5.3898767899        7.5558726685
  H         6.0620934321        7.9590967211        1.4639819234
  H         4.9944678508        6.7283747885        1.4372650564
  C         4.2432863576        8.2632669912        2.6940711546
  C        12.9372790863       -0.6041386270       -2.4823672388
  S         5.6486679694        6.7165861588       21.8308906777
  C         6.1294063918        9.5649246107       21.3474527062
  H        17.1986355982        5.2096413096        8.5300073235
  H        17.4894364393        4.4992080738        6.9413018879
  C        19.0163346510        5.7261451246        7.6251069255
  H         4.4433438846        8.4271782959        3.7371909518
  H         3.2595966542        7.7670124526        2.7351359647
  C         4.2042922149        9.6752496697        2.1057143262
  H        12.8150693488       -1.6524192550       -2.3807141131
  C        13.4079319669       -0.2259705800       -3.7349555412
  H         5.2642746840        9.3125910888       21.9338076005
  H         5.9207042559       10.5388282783       20.8655339688
  C         7.3620266499        9.5747099038       22.2961330166
  H        19.4978380393        5.2403300336        8.4645213173
  H        19.1038674580        6.7621554455        7.7890440195
  C        19.7381061129        5.2229982532        6.3336147580
  H         3.4791454446       10.2257421528        2.6626223445
  H         5.2332005361       10.2180656019        2.1244984860
  C         3.7599529895        9.6879420310        0.6266979314
  S        13.7675201175        1.3526424472       -4.2498525337
  C        13.5709120667       -1.2380420042       -4.7946189607
  H         7.0700772493        8.9608957727       23.1461312684
  H         7.5015085303       10.5640079186       22.6915667043
  H         8.2993178915        9.2292544034       21.7979777113
  H        19.8800574364        4.1954339573        6.3571575087
  H        19.2579684690        5.4013205356        5.3959197022
  H        20.7735349093        5.7581745472        6.3375218117
  H         3.8823668611       10.6221179031        0.1542173169
  H         4.2360862625        8.9680504535       -0.0844196584
  H         2.6978722475        9.3844159430        0.5416533400
  C        14.2595323707        0.6833826289       -5.7971350288
  N        14.0148372775       -0.6493069555       -5.8781556639
  O        13.3944462222       -2.4553322450       -4.5924126119
  S        14.6535743940        1.6249180956       -7.2661136183
  C        14.0092118549       -1.3145384858       -7.2028852041
  H        14.2338948718       -2.3612263250       -7.2094977042
  H        14.7837108927       -0.8635018373       -7.9472174895
  C        12.6096071120       -1.1722971548       -7.9063540327
  H        11.8800895596       -1.7217700466       -7.2400571664
  H        12.4577248980       -1.7406483840       -8.8343628961
  H        12.3613097739       -0.0998852445       -8.0066153521
