352
 i =    88600, time =    44300.000, E =        99.3791389255
  H        12.4360347163        6.9412264356       32.7748449019
  C        12.0248099462        6.0841647403       32.4463609426
  H        12.8084613696        5.3574149385       32.1818047897
  C        10.9928805124        6.2939991935       31.2755082488
  C        11.3617808470        5.2922565469       33.6010396289
  C        11.4503491292        5.8333115992       29.9019326166
  H        10.0689123593        5.7537471005       31.3915607178
  H        10.7606308550        7.3796636331       31.2434953441
  H        11.9929084551        5.2798085000       34.5439877267
  H        10.3685607959        5.6955677646       33.8901605858
  H        11.0770421571        4.3087099467       33.2685362638
  C        10.3829159597        5.7338464292       28.8942421772
  H        11.9478785671        4.8759231479       30.0929239083
  H        12.1790701695        6.5655495666       29.6219479535
  C        10.7772566935        5.5361215312       27.4290122273
  H         9.9406278834        4.7443279723       29.1157034109
  H         9.7074804002        6.5745490859       29.0439491122
  C         9.5751104427        4.8840650501       26.6363513754
  H        11.7373853298        4.9890351461       27.3928979565
  H        10.9992447346        6.4972381689       27.0165411860
  C         8.5109050534        5.8943183873       26.4455940502
  H         9.8504180319        4.5780430850       25.6061060577
  H         9.3346908360        3.9378397335       27.1059231002
  C         7.2531340900        5.2570786617       25.8200522198
  H         8.1750788071        6.1878096735       27.4202245844
  H         8.7870806023        6.7715662534       25.8468957165
  C         6.8496800471        3.9119898445       26.5150118657
  C         7.5713169469        4.5691629058       24.5578533282
  C         6.0282005360        6.2197876511       25.6656026284
  C         6.9501419293        2.8239579676       25.6585409665
  C         6.3520847522        3.5757398439       27.7788988784
  C         7.4603303457        3.2279263184       24.4594126840
  C         8.0264967919        5.1421226063       23.3829306747
  H         6.3316794357        7.0444576596       25.0122632056
  H         5.7989539160        6.6714382358       26.7125698923
  C         4.7957470709        5.6849549371       24.9692881344
  S         6.6883678730        1.2834263751       26.4401055845
  C         6.2359164283        2.1948386411       27.8820295630
  H         6.1474916272        4.3655347469       28.5457310184
  C         7.8715555517        2.5754334540       23.2753019087
  H         8.1297764496        6.2273722883       23.4727225250
  C         8.3235077460        4.5698652309       22.1818242522
  H         5.0615519996        5.4143122530       23.9637076853
  H         4.4952414767        4.7249253991       25.4149107502
  C         3.5989209816        6.5932310979       24.9937531233
  C         5.9979567237        1.5364261195       29.2175158396
  C         8.2949143816        3.2113079208       22.0836214896
  H         7.7896085219        1.4933056979       23.1969605245
  C         8.7271664770        5.0112823887       20.9312789354
  H         2.8023859692        6.2215199918       24.3259806840
  H         3.8112075807        7.5548522993       24.5499124714
  C         3.0699483377        6.7303469750       26.4195798810
  C         6.0540991950        0.1526262942       29.4379679540
  C         5.4614802630        2.4325270040       30.3317139994
  C         8.7114086534        2.5774298964       20.7445003641
  C         8.9807893275        3.9380737370       20.1024574552
  S         9.0625780314        6.5336053070       20.2827934465
  H         2.4594413860        7.6245128409       26.5444184276
  H         3.7836363776        6.8624550887       27.1951616977
  C         2.1338033008        5.6039899292       26.8930098613
  N         6.4627257702       -0.8120267403       28.5662895132
  C         5.6104723524       -0.3577240057       30.6729339302
  C         5.0943697161        1.8838098958       31.5907980191
  H         5.3616704303        3.5653863196       30.1155399497
  C         7.3642030612        1.8747007623       20.1638836717
  C         9.9550851391        1.7368183057       20.6736154695
  C         9.3786254600        4.3727779784       18.8145558423
  C         9.5229175114        5.7681813698       18.8198529136
  H         1.2794110018        5.5099439368       26.2980551676
  H         2.6445882404        4.6353290698       26.8749664216
  C         1.5470442003        5.7031821331       28.2697960385
  S         6.4215943312       -2.2719442251       29.3456235934
  N         5.6338010906       -1.7046855525       30.6749323839
  C         5.2952736766        0.4239426237       31.8218335947
  H         4.8893392519        2.4931678329       32.4417620038
  H         6.9820340390        1.1920696127       20.8783230168
  H         7.6304074835        1.2816431727       19.2479775328
  C         6.2298461274        2.8783716831       19.8768269320
  H        10.3459735867        1.5340993235       19.6772528915
  H         9.7933068449        0.7856838568       21.1065102219
  C        11.0687469258        2.4137460597       21.4837492057
  H         9.7058600771        3.6153765569       18.0639921953
  C        10.0348786962        6.6162643747       17.7249876370
  H         0.7794190003        4.9223447008       28.3370861414
  H         1.0775547731        6.6556552246       28.5186344058
  C         2.5482174231        5.3540336632       29.3213337215
  C         5.0457369918       -0.3359355079       33.0334292273
  H         6.5829606275        3.7966853481       19.3948738004
  H         5.7713595662        3.2817261258       20.8101915294
  C         5.0876682899        2.4236196301       18.9774711884
  H        10.7517066360        2.5537191625       22.5017896969
  H        11.2638897584        3.4275701395       21.1076712470
  C        12.3589542436        1.6915276667       21.3856001331
  C        10.1032288765        8.0222403228       17.6008205007
  C        10.2629064337        5.9441097417       16.4071171794
  H         2.9009288739        4.3063787570       29.0992625330
  H         3.4377309199        5.9870068199       29.2938571301
  C         2.0746650560        5.3921125035       30.7633566614
  H         5.0821438382       -1.3547545877       32.8870218212
  C         4.7585102035        0.0064023420       34.3228522386
  H         5.4125444907        2.3698614862       17.9404690228
  H         4.5127906728        3.3027769506       19.0602526568
  C         4.3587895947        1.1996063039       19.4233940325
  H        12.2302119166        0.6553965563       21.6831420862
  H        12.6584310353        1.6904519005       20.3176369735
  C        13.5157920440        2.3250561596       22.1902289580
  N         9.7431182666        8.8885686267       18.5946986922
  C        10.5433894332        8.7733414122       16.4639519107
  C        10.6909445083        6.6677695428       15.2880857345
  H         9.9613287223        4.8632387961       16.3230399979
  H         1.8045219379        4.4215791581       31.2101333935
  H         2.9649454314        5.5916827595       31.4060056834
  H         1.2506610724        6.0982448312       30.9377087582
  S         4.3781000250        1.6295684254       34.8545952771
  C         4.9304739324       -1.0579594824       35.2623208873
  H         5.1325185677        0.5046376757       19.6821485122
  H         3.9162518599        1.3241256759       20.3834762346
  C         3.5283667130        0.6658325906       18.2200801879
  H        13.1389862112        3.0882997579       22.9016281316
  H        14.0328305624        3.1449804710       21.5787862241
  C        14.5277202680        1.3813233338       22.7894834026
  S        10.1479339034       10.4614929773       18.2121993016
  N        10.4373556176       10.1791937394       16.6184061729
  C        10.9190764454        8.1775655328       15.2925905056
  H        10.8127667419        6.1415816431       14.3793355406
  C         4.3317067667        0.8490324323       36.3988443739
  N         4.6271963116       -0.4915623303       36.4537118756
  O         5.3762456925       -2.1517181225       34.9758566626
  H         4.2173851508        0.1655114537       17.5620010817
  H         3.0794982997        1.5442798493       17.7018950556
  C         2.4194926501       -0.2277249359       18.7221587255
  H        14.0005596160        0.8188968796       23.5310823006
  H        14.8265185263        0.6105314691       22.0116178001
  C        15.7200943186        1.9830699709       23.5322513324
  C        11.3747877176        8.9330208965       14.1089931199
  S         3.7835677324        1.6159770060       37.8507323815
  C         4.8076282617       -1.2941155864       37.6476114265
  H         2.4199019666        0.0016522615       19.8003758376
  H         1.3983860287       -0.0159117286       18.4512750538
  C         2.7753879757       -1.6782064855       18.3836383390
  H        16.1433606573        1.2338002307       24.2414423088
  H        15.4756387940        2.8488458722       24.1166522629
  C        16.8153683362        2.4776667727       22.6026315064
  H        11.0969374428        9.9657344053       14.1899480131
  C        11.7963724586        8.4383651058       12.8861190686
  H         4.3316275890       -0.8326754556       38.5260094089
  H         4.2648735118       -2.2787133664       37.6140054727
  C         6.2523185548       -1.5380540684       38.0680870697
  H         2.1322962951       -2.4365193823       18.8732810813
  H         3.7463665463       -2.0702229696       18.7257023191
  C         2.6978735374       -2.0670254266       16.8803678758
  H        16.4805356286        2.2968277860       21.5854156480
  H        17.0246403218        3.5121050647       22.7083322023
  C        18.0973285459        1.6545412215       22.7984754341
  S        12.3827422767        6.8870851704       12.4747157875
  C        11.9475906922        9.5514399328       11.8734772288
  H         6.6637745139       -2.4554268276       37.8037899817
  H         6.8749571516       -0.7499118583       37.7162666543
  H         6.3498091199       -1.5335201642       39.1805481442
  H         2.0754001310       -2.8882781670       16.6909865196
  H         3.6714983274       -2.1479153762       16.4632169032
  H         2.3460345900       -1.2782096154       16.3077923928
  H        18.3623415126        1.7668406985       23.8390238140
  H        18.9467399888        1.9813217931       22.2083836310
  H        17.9675524900        0.5864568831       22.6258575742
  C        12.7030169702        7.6449870490       10.8657028081
  N        12.5016659808        8.9764956756       10.7952255478
  O        11.9563838549       10.7556790817       12.1537470523
  S        13.3593027522        6.6648509461        9.5892675307
  C        12.6976039432        9.7490329903        9.5724314716
  H        13.0903003218       10.7236318672        9.8663289101
  H        13.5203816178        9.2988775476        9.0609812896
  C        11.3368783460        9.9493011780        8.8555551743
  H        11.1019626974       10.9896449648        9.0226423444
  H        11.4056668716       10.0079678080        7.7807874341
  H        10.5563238171        9.3110888507        9.0829534047
  H         4.8845003469        1.5863862891       12.7101149687
  C         4.3274069913        2.4978680107       12.9620209141
  H         5.1138355976        3.2307532328       13.2759224513
  C         3.5577941536        2.9768787673       11.7822767620
  C         3.5145406719        2.1611952202       14.2756256680
  C         4.4197959283        3.0231143033       10.4326109524
  H         3.0400261843        3.8713143691       11.9963997759
  H         2.7836470119        2.2493429726       11.6607859868
  H         2.5002658875        1.7782511551       14.1342290066
  H         3.5276262347        3.0669933305       14.9078010008
  H         3.9430350817        1.4374745892       14.9603931794
  C         4.8274992918        1.6504222070        9.9443512726
  H         3.9132472804        3.6283282788        9.7333120859
  H         5.3631926547        3.5736319833       10.6400566134
  C         5.7438811989        1.6389384737        8.7250207544
  H         3.9643885964        1.1532459324        9.5574240087
  H         5.3269324169        0.9812420230       10.7080794503
  C         6.9868870703        2.5769520488        8.7436691727
  H         5.0762684855        1.8871448452        7.9275635372
  H         5.9958689690        0.6046651139        8.5932406171
  C         8.2969626732        2.1427496456        9.2914730473
  H         7.2702693565        2.5261225281        7.7182341998
  H         6.7972163560        3.7038005500        8.8727888445
  C         9.4603606705        3.1389374597        9.5304144146
  H         8.7247148779        1.3347273542        8.6764437766
  H         8.0758819762        1.5806284915       10.2312075723
  C         9.1229094714        4.3795066904       10.2344316686
  C         9.8768980631        3.8490668360        8.2429358498
  C        10.6909857543        2.3608125114       10.1227972608
  C         9.3954211813        5.5152738591        9.4848358422
  C         8.6255019738        4.6107118981       11.5133773431
  C         9.8101136323        5.1814200224        8.1775711654
  C        10.2239421382        3.1948888904        7.1083065559
  H        10.3421416455        1.7215619674       10.9092423203
  H        10.9883634694        1.5563365598        9.4598584733
  C        11.9518257615        3.1924293041       10.4834997555
  S         9.2227857917        6.9441538908       10.3531750430
  C         8.6522812071        5.9729536290       11.7517877466
  H         8.4147591409        3.7480235976       12.1162807026
  C        10.2018024252        5.8065520976        7.0080418721
  H        10.1988625540        2.0953648910        7.1379545456
  C        10.5678609609        3.8157622116        5.9417608028
  H        11.7667453940        4.0652206979       11.1106320925
  H        12.3206275589        3.6789038471        9.5790972548
  C        13.0178301719        2.4948714921       11.2315768432
  C         8.0489513021        6.6024168022       12.9622808381
  C        10.6106022167        5.1546911009        5.8697515480
  H        10.2606093952        6.8829931202        6.9285609452
  C        11.0343766845        3.3900667256        4.7344398319
  H        13.9094584866        3.0719859651       11.0282899162
  H        13.1042142621        1.5011184443       10.7155712152
  C        12.7337155275        2.0437882774       12.6477159558
  C         8.0909872274        8.0351683950       13.2110828868
  C         7.4255178301        5.8122516512       14.0228722476
  C        11.1658186953        5.7734848380        4.5941905040
  C        11.3519573042        4.4082381577        3.9031071217
  S        11.3334907220        1.8553211414        4.0309409294
  H        11.7796305107        1.5952631143       12.7366438159
  H        13.4249633222        1.3378599542       13.0113942938
  C        12.9240504488        3.2434670893       13.5671943871
  N         8.5657006480        8.9975959733       12.3044756092
  C         7.6139437736        8.6213243528       14.3648522254
  C         7.0938292024        6.3652225865       15.2707209511
  H         7.2227688414        4.7794625126       13.8050938741
  C        12.6288776075        6.3730689096        4.6948189896
  C        10.1395096486        6.6406675064        3.8836523652
  C        11.8025579470        3.9448989998        2.6432204931
  C        11.7216469578        2.6057213489        2.5945828618
  H        12.8448557632        4.1830633872       13.0518657630
  H        13.8160145688        3.2208727980       14.1039857358
  C        12.0114197124        3.3363348484       14.8827317789
  S         8.4372784454       10.4773625333       12.9604319673
  N         7.8217939045        9.9866484990       14.3078063236
  C         7.1922377174        7.8495194131       15.4871201565
  H         6.6929049177        5.7704271943       16.1031694648
  H        12.4797198874        7.4246270468        5.0258713461
  H        13.0365595728        6.3607922409        3.7120809697
  C        13.6374099861        5.6229248060        5.6304855271
  H         9.9787323008        7.4356751100        4.5822381738
  H        10.6858455373        6.9076569924        2.9534909788
  C         8.7074107275        6.0879423818        3.7041321838
  H        11.9877696390        4.6382676283        1.8345059802
  C        11.9479165554        1.8401774770        1.3345626561
  H        12.4322273497        4.1687760872       15.3043529439
  H        11.0009776596        3.6056671881       14.5171423287
  C        12.1234943134        2.1706219850       15.8280795725
  C         6.9419545311        8.6332430290       16.6402007455
  H        13.2332627233        5.1176283343        6.5299082543
  H        13.9937831599        4.7622327746        5.0070178022
  C        14.7938775962        6.5570521716        5.8903214326
  H         8.1341332133        6.4349731120        4.5296234033
  H         8.6822231503        5.0000714187        3.7426671663
  C         8.0218733088        6.7020493246        2.4877317051
  C        11.9934554653        0.4721022023        1.2029425600
  C        12.0846211779        2.5789485630        0.0364948060
  H        12.9151171801        1.5681024826       15.4797777340
  H        11.2585678968        1.4877603779       15.8758576907
  C        12.3649506636        2.6509471181       17.2882875210
  H         7.0961649960        9.7165805703       16.5931821228
  C         6.5405274793        8.2306528615       17.8984023800
  H        14.3520037466        7.4242103348        6.4292126967
  H        15.1437360126        7.0918445050        4.9989323333
  C        15.9523981348        5.9578564993        6.6309825691
  H         8.2628996695        7.7528523191        2.4181311809
  H         8.3616676681        6.1789686601        1.6622310103
  C         6.4915190475        6.4554170824        2.3797216785
  N        11.9234809282       -0.4154683719        2.3104947269
  C        12.2622935211       -0.1890376324        0.0308530508
  C        12.2623365030        1.9074545451       -1.1619855937
  H        12.1044201429        3.6484983158        0.0320910090
  H        12.2628541076        3.7054206512       17.5995541610
  H        13.3480332405        2.2906843768       17.5974228132
  H        11.6156319936        2.1371339729       17.8785705225
  S         6.0607031802        6.6912007942       18.4286351754
  C         6.4948014918        9.3368600283       18.8800727652
  H        16.2705628686        6.5482743598        7.4873129337
  H        15.3891735670        5.0322889305        7.0330940386
  C        17.2482917980        5.6528504912        5.8695793614
  H         6.2877481728        5.3892988549        2.5205611310
  H         6.2397910567        6.5681973821        1.3513733518
  C         5.4916857929        7.3418661776        3.1268075477
  S        12.1897687354       -1.9224600010        1.7403387032
  N        12.4046861733       -1.5905872451        0.1807657569
  C        12.4312923668        0.4610703517       -1.2205738019
  H        12.5723005483        2.3827874434       -2.0508752119
  C         5.8539057561        7.4616901419       19.9726051438
  N         6.0317332176        8.7846787842       20.0397088843
  O         6.7776667549       10.5160415387       18.6490613998
  H        17.0203681868        5.1038692012        4.9554884661
  H        17.7685566921        6.5221501018        5.5409535490
  C        18.1096425418        4.8913297275        6.7887499566
  H         4.6017026413        6.7119124444        3.4133840998
  H         5.8895346227        7.7603145574        4.0765161960
  C         5.0808377973        8.7050852629        2.4295825309
  C        12.8175446961       -0.3797120315       -2.3335453499
  S         5.3470388552        6.5769670536       21.4956458887
  C         6.0641717288        9.5747938427       21.3347545638
  H        17.5948495735        4.3369569695        7.5649308397
  H        18.6069278332        4.0992638801        6.1685046705
  C        19.2332637625        5.6827570589        7.4055707641
  H         5.9056494307        9.2889077485        2.0137217092
  H         4.5927448926        9.2466822308        3.2148257855
  C         4.1101614531        8.5156518486        1.2545448617
  H        12.5297955489       -1.3633350183       -2.2642826858
  C        13.3719846771       -0.1153239627       -3.5387389787
  H         5.5294341878        9.0833427588       22.1132056752
  H         5.5271577673       10.5117757190       21.1454802584
  C         7.4624820456        9.6971765660       21.9794288060
  H        19.4633990863        5.3753698872        8.3659227806
  H        18.9791787854        6.7129358086        7.5967699495
  C        20.5392514374        5.6274731379        6.6506838861
  H         4.4402546139        7.6965741984        0.5967676930
  H         3.2145494087        8.0031753815        1.7053827775
  C         3.7032076067        9.8097118240        0.5427523767
  S        13.7243234982        1.4351230559       -4.1701402243
  C        13.4692513689       -1.2510022927       -4.4997647462
  H         7.8298482171        8.6547303210       22.3604653538
  H         7.4494200972       10.4095595074       22.8522255438
  H         8.0967957141       10.2214651210       21.2943158017
  H        20.6787302304        6.2558179357        5.7618394355
  H        21.3043132503        5.9139983946        7.3830557982
  H        20.8486673064        4.6363675804        6.3280168747
  H         2.7647629824        9.7631299875       -0.0322318044
  H         3.4558072426       10.5357969316        1.3491681698
  H         4.4970729871       10.2869801969       -0.0224554884
  C        14.1878716943        0.5592447697       -5.6332461077
  N        14.0459339605       -0.7762212189       -5.6559850031
  O        13.1117309939       -2.4178347634       -4.2395215393
  S        14.7647417087        1.2614045918       -7.1053266298
  C        14.0276810422       -1.6073575496       -6.8737200652
  H        13.9630946609       -2.6909995949       -6.6791447087
  H        14.9946259049       -1.5247528087       -7.4474578592
  C        12.7095522901       -1.3149272486       -7.7175521243
  H        11.8062119140       -1.3777084090       -7.0412765589
  H        12.7633470967       -2.0361672074       -8.5686887700
  H        12.7611499520       -0.4019665516       -8.2370608312
