352
 i =   118100, time =    59050.000, E =       100.3282130343
  H         9.6770106787        5.9493956081       32.2344377884
  C        10.6397732525        5.4303863280       32.2540452522
  H        11.3723824151        6.2377247907       32.1045738302
  C        10.6432061482        4.4375575774       31.0314700292
  C        11.0284672927        4.7316812604       33.6011036231
  C        10.4544999162        5.1732270632       29.7151016595
  H        11.6013279549        3.9782893267       31.0145352008
  H         9.8001720911        3.6695310875       31.0792189691
  H        10.2390068633        4.0419804483       33.9716356888
  H        11.8839854133        4.1108412113       33.5432307065
  H        11.3040405478        5.4595264942       34.4130740391
  C        10.8559937066        4.2320775690       28.5788167377
  H        10.9609119468        6.1584060704       29.6423246091
  H         9.3704584116        5.3947860129       29.5046577081
  C        10.6665546119        4.8544045378       27.2669345670
  H        11.8527759257        3.8252881153       28.7379373441
  H        10.2836782908        3.2437016505       28.6205617634
  C         9.4776726611        4.3274401648       26.4012352055
  H        11.6401210447        4.8207550087       26.7459641151
  H        10.5346110913        5.8707491320       27.5936444973
  C         8.3573604627        5.3199906196       26.2043634303
  H         9.8451917749        4.0170861416       25.4205989850
  H         9.1773861008        3.3400571567       26.7141457672
  C         7.0375017144        4.6717215901       25.6632142310
  H         8.1259115538        5.8040632066       27.1926095403
  H         8.7533808777        6.0708470764       25.5039005423
  C         6.7355574114        3.3240109932       26.3472793835
  C         7.3462504327        3.9655294670       24.3440951451
  C         5.8100983708        5.6948601223       25.4437173527
  C         6.9163015009        2.2326454130       25.4840605365
  C         6.4154221641        2.9294559212       27.6590015568
  C         7.3820617428        2.6201277422       24.2680561474
  C         7.7140124077        4.5588435689       23.2200163330
  H         6.1835574420        6.4648906533       24.7669693286
  H         5.6596989500        6.2323365381       26.3723492674
  C         4.5073195570        5.1065336885       24.9297452277
  S         6.4701729670        0.7368784408       26.2194404299
  C         6.3164551845        1.5470529422       27.7438551420
  H         6.2441645031        3.6029257828       28.3990737955
  C         7.7434499308        1.9578388995       23.1059497083
  H         7.7515166653        5.6092388797       23.1168863304
  C         8.0220967189        3.9998191533       22.0309951897
  H         4.6224836733        4.9596952907       23.8721779024
  H         4.1299040593        4.1798897837       25.3886565129
  C         3.3575355309        6.1129654074       25.1025361384
  C         6.0005924325        0.8331417871       29.0454350334
  C         8.0682279439        2.6098491093       21.8868375600
  H         7.7927811351        0.8665327205       23.1048020949
  C         8.5365162283        4.4176532525       20.7529749325
  H         2.6036750803        6.0204152270       24.3713174230
  H         3.6473701873        7.1250693189       25.0559749859
  C         2.6201952512        5.9966757777       26.4405135209
  C         5.8841384519       -0.5839673858       29.2238135613
  C         5.7137774388        1.6440492317       30.2283497553
  C         8.5106316274        1.9580501274       20.6423528652
  C         8.7481691406        3.3389973052       19.8692908504
  S         8.8336953962        5.9765174527       20.0272149618
  H         1.7428266098        6.6301524592       26.2995524539
  H         3.3012159956        6.6883435253       27.0551062123
  C         2.2684604461        4.5522536808       27.0013029841
  N         5.9632453743       -1.5760363509       28.2662764404
  C         5.4544281470       -1.1812090830       30.4701327164
  C         5.3636913607        1.0442758772       31.3771416934
  H         5.7202417679        2.7454045688       30.1531967375
  C         7.4088313347        1.0924611186       20.0114602668
  C         9.8314963770        1.1669321303       20.9021358746
  C         9.1268334649        3.8049130849       18.5840293034
  C         9.2110208611        5.1674822578       18.5640196910
  H         2.0046790022        3.9722282235       26.1094908466
  H         3.1927535061        4.1428934123       27.4000213806
  C         1.0475264256        4.7036703814       28.0233673406
  S         5.6934479396       -3.0638187539       28.9775034099
  N         5.4344180362       -2.5406683375       30.4929539380
  C         5.2320400836       -0.3756918323       31.5868214407
  H         5.2319613632        1.6732006965       32.2185157057
  H         7.0478406010        0.5691394286       20.8413909967
  H         7.8465635899        0.3593378826       19.2518728335
  C         6.2614354336        1.9660291200       19.3507410256
  H        10.1459337112        0.8681973913       19.9081554421
  H         9.6322382893        0.3485098706       21.5626829980
  C        10.9303477541        1.9218672799       21.5898046452
  H         9.3290242400        3.1129798398       17.7720625275
  C         9.5393808193        5.9729792395       17.2947930784
  H         0.7018615907        3.7078730758       28.3260244229
  H         0.2822724771        5.2776041146       27.4854658202
  C         1.4165009273        5.4190792099       29.2397075671
  C         4.7902413481       -0.9494552048       32.8226765451
  H         6.5684459556        2.3116024309       18.3421852567
  H         5.9222482252        2.8061543240       19.9454775703
  C         4.9915557206        1.1147636522       19.1606776907
  H        10.5537746143        2.1936757258       22.6326556199
  H        11.4153640218        2.7403202253       21.0682919664
  C        12.2052663219        1.0327537783       21.9692078584
  C         9.7059742808        7.3287313151       17.1935375535
  C         9.7043486398        5.2558269580       16.0350395005
  H         1.7971242198        6.3802165978       29.0125739338
  H         0.4863243511        5.4983175328       29.8394358783
  C         2.3580760252        4.7585128511       30.2022212533
  H         4.8180642416       -2.0466139994       32.8184273837
  C         4.4405539545       -0.4897946829       34.0693098910
  H         4.5934545789        0.7452185069       20.0909333137
  H         5.3990639582        0.3003907084       18.5172532587
  C         3.9057010063        1.7456924103       18.3329164336
  H        11.9307817923        0.2835777934       22.7305625928
  H        12.5956836655        0.4537018464       21.1524026136
  C        13.3498866100        1.7780506338       22.4931128902
  N         9.5966833481        8.1752408966       18.2898135313
  C        10.0494136686        8.0523141398       16.0323450899
  C        10.1363719500        5.8702186138       14.8564738759
  H         9.5365348412        4.2756625648       15.9257645444
  H         2.8562033167        5.4732867725       30.8395576949
  H         1.7226728381        4.1764470435       30.8043741445
  H         3.1605138759        4.0712582061       29.7756029245
  S         4.1180450245        1.1203507790       34.5292793917
  C         4.1534661951       -1.4893681579       35.1037505091
  H         3.6994954368        2.7928359952       18.5906216336
  H         4.2172993376        1.7672790604       17.2816820193
  C         2.5044635129        1.1069256387       18.4942046752
  H        13.3476345476        1.6344327395       23.6201555120
  H        13.1746174521        2.8775652559       22.2977510683
  C        14.6586999388        1.3457511389       21.9238398523
  S         9.7802358901        9.6990994463       17.7652226187
  N        10.1809950486        9.4153851130       16.2375198854
  C        10.3560321171        7.3598790013       14.8093850635
  H        10.2296939343        5.2536152274       14.0250747046
  C         3.8761404449        0.4775370503       36.1350186081
  N         3.7538157770       -0.8694528660       36.2324783184
  O         4.3493088687       -2.6452787375       34.9657935263
  H         1.8277061645        1.6422549296       17.8305715641
  H         2.2711847393        1.1478353924       19.5675894331
  C         2.4452597290       -0.3348286917       18.0711400066
  H        15.1089297483        0.4820218032       22.2393745643
  H        14.5419027426        1.2203494679       20.8629336825
  C        15.8367839330        2.2816693117       22.0583326548
  C        10.7164561865        8.1063380216       13.6945187656
  S         3.3733340199        1.4940593927       37.5506308032
  C         3.5842182123       -1.5868563380       37.5115213543
  H         2.4939119755       -0.3691982230       16.9805035110
  H         3.2497076026       -0.8873818361       18.3802321261
  C         1.2464429286       -1.0413696858       18.6390488487
  H        15.5392642239        3.1142592864       22.7145612940
  H        16.1638303584        2.7545370141       21.1133386153
  C        17.0285937653        1.6414010434       22.7342015712
  H        10.4019765523        9.1427944298       13.7763123248
  C        11.2786926023        7.7213895063       12.4953729209
  H         2.9339534618       -1.0643832691       38.2334029712
  H         3.1301153045       -2.5595718712       37.3363972781
  C         4.9475723642       -1.6979642086       38.2033899320
  H         0.3203486387       -0.4903037207       18.5197685572
  H         1.3509520440       -1.0880973942       19.7339978288
  C         1.0144703806       -2.3798214740       18.0688809236
  H        17.3558885491        0.7989574432       22.2014758546
  H        17.8422356138        2.2846233888       22.4008403912
  C        16.7012581347        1.5363748517       24.2601813199
  S        11.8662092628        6.1282861776       12.1113179181
  C        11.4469502718        8.8061757816       11.4709053914
  H         4.9480789659       -2.0562064261       39.2116215550
  H         5.4495830198       -2.4566607635       37.5229513938
  H         5.5047539089       -0.7979495167       38.0057118057
  H        -0.0683698643       -2.6947082046       18.0457664133
  H         1.4083462399       -3.2187217390       18.7191421719
  H         1.3673713481       -2.4225064456       17.0066577043
  H        16.0579349125        0.6580061975       24.3601210414
  H        16.2294721212        2.4110714862       24.6644184930
  H        17.5467386000        1.3208480721       24.9319345744
  C        12.4082264813        6.8488355357       10.6216878018
  N        12.1351226280        8.1992136203       10.4634159896
  O        11.2555338142       10.0174482476       11.6897095257
  S        13.1930977578        5.9591730213        9.2892184201
  C        12.5556248340        8.9318514448        9.3511565243
  H        12.8856952452        9.9498432129        9.6452610138
  H        13.5277435767        8.6385257215        9.0420936081
  C        11.5232853710        8.9365550738        8.2544924042
  H        12.0277449442        8.6705212484        7.3333902671
  H        10.7322854294        8.2636905690        8.4191529946
  H        11.1302754772        9.9166011705        7.9791793803
  H         3.5953796357        3.7211952459       12.4145136979
  C         2.6078373801        3.1950199094       12.6736557935
  H         1.9646007806        4.0749738046       13.0526604754
  C         2.1408198546        2.6496929028       11.3658027020
  C         2.7847719554        2.1444284668       13.7879298996
  C         3.0437197711        2.9451795495       10.1362047377
  H         1.2349756888        3.1794382894       11.1248881854
  H         1.8856196028        1.5546620968       11.4583764368
  H         1.8968171015        1.5134710214       14.0964972525
  H         3.1456841702        2.5539869270       14.6967266030
  H         3.5654601173        1.5300265652       13.5095526507
  C         4.0549751390        1.8646968505        9.8456182670
  H         2.3493909379        3.1220372498        9.2814961753
  H         3.5031705486        3.8918646407       10.3755640806
  C         4.9268090955        2.0784602601        8.5524014690
  H         3.5301944207        0.9168016368        9.7719548790
  H         4.6691930739        1.8610700324       10.7062510978
  C         6.2067423147        2.9145676183        8.7939087158
  H         4.3673090512        2.5891479533        7.7677165064
  H         5.2193296629        1.1106177473        8.1613839819
  C         7.5439333293        2.1329954431        9.2028137470
  H         6.2959725501        3.5828726827        7.9604379052
  H         6.0731263470        3.6562846799        9.5877310230
  C         8.8499162300        3.0004147832        9.4109719498
  H         7.7374082712        1.3140905865        8.4969518249
  H         7.3204941634        1.5965792218       10.0959697902
  C         8.6532502814        4.3319639591       10.0396182709
  C         9.3490195636        3.6308135845        8.1555089437
  C         9.9635216086        2.3168944621       10.2721255573
  C         8.8776588860        5.4222943317        9.2986918799
  C         8.2015831561        4.6532182008       11.3190985801
  C         9.3752248202        4.9764777198        8.0755187845
  C         9.8933416665        2.9871885176        6.9797434337
  H         9.4965345453        2.0637781808       11.2159443560
  H        10.2853977111        1.4287757695        9.7112420696
  C        11.2609852819        3.0852162988       10.4003515897
  S         8.5194172571        6.9281965521       10.0739230315
  C         7.9784127189        6.0149137834       11.4503892629
  H         8.0376055412        3.8729856075       12.0873792475
  C         9.7893722702        5.6124637067        6.9281693806
  H         9.9705494021        1.9031985414        6.9797859421
  C        10.1987761828        3.6218007098        5.8151236148
  H        11.1969467127        4.1801900862       10.5292051439
  H        11.7876001424        3.0211584978        9.5111309722
  C        12.2465373646        2.4535414180       11.3685503440
  C         7.5059423970        6.6174360684       12.6855068961
  C        10.1609553008        4.9824912440        5.7040865847
  H         9.7796291159        6.6813371996        7.0227232709
  C        10.5568922552        3.2156652881        4.5352029943
  H        13.2733710316        2.8520669316       11.2588655129
  H        12.2753022117        1.3429723461       11.1598490196
  C        11.8542715722        2.8164168882       12.8958734052
  C         7.4898148473        8.0043038667       12.9765298749
  C         6.8766165883        5.7440558282       13.7055306699
  C        10.4228010840        5.6315040069        4.3896228414
  C        10.7031643413        4.3001503772        3.6789347940
  S        10.8010936707        1.6615365939        3.8568481272
  H        12.7225515993        3.2171186894       13.3573256817
  H        11.1379467731        3.6379720536       12.9701091387
  C        11.4127301288        1.6543702854       13.7060452257
  N         7.9165994744        9.0310142505       12.1354115540
  C         7.2773755048        8.3976514385       14.2783742219
  C         6.3786782706        6.2396149572       14.9331632881
  H         6.7101953839        4.6300388294       13.5557320073
  C        11.6649923191        6.5471631337        4.5513502277
  C         9.1756983039        6.2850191041        3.8446889454
  C        11.2877124454        3.8538338174        2.4837921604
  C        11.3431967450        2.4762982382        2.4190411506
  H        11.9917814298        0.8038023083       13.6469330871
  H        10.3904123122        1.3999984859       13.3973603808
  C        11.4111303672        2.1520037458       15.0913416203
  S         8.0855106078       10.4109396805       12.9900769897
  N         7.4201156335        9.8077585774       14.3637551662
  C         6.7660675324        7.5467186046       15.3391047782
  H         6.0792846874        5.4739236322       15.6846298460
  H        11.4569675079        7.3586818266        5.2661558499
  H        11.7927303599        7.1331718862        3.6080200415
  C        12.9785330562        5.7872704253        4.8520055221
  H         9.0983155229        7.1330560586        4.5076806966
  H         9.4601458634        6.7193307797        2.9189206008
  C         7.9228074758        5.3800031261        3.6178007205
  H        11.4265544276        4.5788147122        1.7139804900
  C        11.6541752155        1.7108511599        1.1011239136
  H        11.3078273215        3.2556312334       15.0381953011
  H        10.5424911046        1.8352814997       15.6747642377
  C        12.6275009372        1.7523521923       15.9969198728
  C         6.6500881258        8.1420205727       16.6411548537
  H        12.8813411424        5.1518232602        5.7045630997
  H        13.2130937424        5.0460544715        4.0840697855
  C        14.2765123566        6.6060728063        4.9440584738
  H         7.5450526487        4.7831298452        4.4643181516
  H         8.1508914029        4.5672410355        2.9030554770
  C         6.8191642614        6.2405814657        3.0571074143
  C        11.6835208614        0.2840236056        0.9373721993
  C        12.0199337646        2.5526427939       -0.0659746579
  H        13.5077488020        2.2549865286       15.7177243980
  H        12.9150420058        0.7381256607       16.1299146711
  C        12.4111939257        2.2938895564       17.3854584951
  H         7.1713962849        9.0394943194       16.7311547834
  C         6.2804759450        7.6264475439       17.8390926380
  H        14.0654562315        7.2481740156        5.7778514440
  H        14.5256792227        7.2444885369        4.0307902099
  C        15.5832777364        5.7957755366        5.1636145928
  H         5.8759131743        5.7444946047        3.2800835605
  H         6.7441221795        7.1467508986        3.5908146127
  C         6.7262999664        6.4115217845        1.5112242178
  N        11.4386093450       -0.7055474812        1.8777831045
  C        12.0939465601       -0.2720999352       -0.2752648250
  C        12.3975611237        1.9775526934       -1.2160683094
  H        11.9851258316        3.6084673376        0.0202099758
  H        13.3690992168        2.5284440362       17.8620101389
  H        11.9195874579        1.6634369853       18.1058755892
  H        11.8670556805        3.2282779616       17.3817392645
  S         5.8213139307        6.0185755263       18.3223438470
  C         6.2523028807        8.6373544713       18.9613157304
  H        15.4233052552        4.8168731657        5.5609091366
  H        16.0633258035        5.5413392760        4.2267185445
  C        16.5799063403        6.4156438584        6.1506752172
  H         7.0480647637        5.5641488572        0.9239202905
  H         7.4414026646        7.1941503484        1.2406759311
  C         5.3992749638        6.9493285162        0.9496782045
  S        11.4175217834       -2.1655534338        1.1313639916
  N        11.9509388821       -1.6703549864       -0.3745520551
  C        12.3986876967        0.5359338387       -1.4133887292
  H        12.5009873019        2.6380005200       -2.1026722268
  C         5.4829804592        6.7545235221       19.8974854276
  N         5.8719957628        8.0715878899       20.0769342003
  O         6.5655296846        9.8048485771       18.7777533274
  H        16.8871229679        7.3914428487        5.7822607312
  H        16.1372009309        6.7436935957        7.1319147995
  C        17.7237319016        5.4812058241        6.3858718617
  H         5.5164008761        7.1228299549       -0.0937471626
  H         4.6473063160        6.1774349176        1.0565599355
  C         4.9024012724        8.1585578936        1.6126409481
  C        12.7220652304       -0.1061502998       -2.6405472334
  S         4.9115823834        5.8172350676       21.2683457452
  C         5.8816925566        8.7898987200       21.3611518774
  H        17.3293819668        4.6265439613        6.9801431969
  H        17.9523606359        5.0424465353        5.3969303622
  C        18.9208943263        6.1908265279        7.0319152125
  H         5.7317070498        8.7421305250        2.0542383793
  H         4.4365384338        7.8114343119        2.5094468962
  C         3.9283321177        8.9725373168        0.7611558348
  H        12.3851874125       -1.1517275586       -2.7486386176
  C        13.3481131881        0.2992665884       -3.8406964118
  H         5.3786972611        8.1948237730       22.1637894698
  H         5.2213722343        9.6890992052       21.1401711872
  C         7.2827094739        9.0895332440       21.9342323935
  H        19.1423834469        5.6315107209        7.9542320500
  H        18.6886627652        7.1923361409        7.3705191287
  C        20.1540016173        6.2033618042        6.1711347493
  H         4.2348218163        8.6780187803       -0.2661569259
  H         2.8624526693        8.6527558202        0.8779174593
  C         4.0367011537       10.5064123637        0.9898732814
  S        13.8611192077        1.9523035427       -4.1880190180
  C        13.3785786702       -0.5858653455       -5.0004564821
  H         8.0211485127        9.1538481965       21.1630891323
  H         7.5664136454        8.3392084450       22.6964848788
  H         7.2878364497       10.1051092423       22.3258948012
  H        20.0610513731        6.5840115872        5.1897046881
  H        20.9669791577        6.6092859486        6.6500357361
  H        20.3873079324        5.1330485637        6.0491950943
  H         5.1191086940       10.8689402418        0.7757438209
  H         3.3223439667       11.0350376420        0.2702489199
  H         3.7457492442       10.7198082511        2.0116545790
  C        14.2998810047        1.3324651142       -5.7628682215
  N        14.0563055291        0.0424068937       -5.9661544119
  O        13.1856423090       -1.8021583656       -4.8361109035
  S        15.0358544525        2.3136207538       -7.0389829053
  C        14.2559943003       -0.6557029719       -7.2229744558
  H        14.6185552390       -1.6552523408       -7.0784457297
  H        15.1419714211       -0.2938615469       -7.7438030803
  C        12.9618155544       -0.6943356082       -8.0641133433
  H        12.1598213284       -0.1052883431       -7.6709363070
  H        12.4626894467       -1.6782960985       -8.0961973090
  H        13.1516725076       -0.3858923541       -9.0640390108
