352
 i =     3000, time =     1500.000, E =       197.7333667868
  H        11.8421014492        6.1994061220       32.0595295342
  C        11.5180219547        5.3047279363       32.1711122770
  H        12.3899129802        4.7816456248       32.0882104567
  C        10.6202646530        5.0239139928       30.9750213996
  C        10.8570730080        5.0979771579       33.4454499038
  C        11.0635589626        5.5676731098       29.6421364561
  H        10.5427399044        3.9361623569       30.7497692540
  H         9.6011870510        5.1820703554       31.1880446292
  H        11.6199860038        4.8167462168       34.2815621830
  H        10.2873439490        5.9815278357       33.7542308414
  H        10.1238162893        4.2457590873       33.6016591061
  C         9.9525062683        5.5775669654       28.5945164115
  H        11.8730775561        4.9860869834       29.2035738877
  H        11.3472996639        6.7365832627       29.5348607334
  C        10.4267488778        5.7401759650       27.2015464657
  H         9.3402628044        4.5562114815       28.7776903610
  H         9.1464869039        6.3313309682       28.7527762114
  C         9.5108656339        4.9617587078       26.1567240325
  H        11.4196490340        5.3102102521       27.1838173195
  H        10.7095009928        6.7417775748       27.0062504325
  C         8.3168681139        5.8158934476       25.9219676373
  H        10.0504361229        4.7480766642       25.1824796262
  H         9.4417080621        3.9287551830       26.3707573871
  C         7.0527026105        5.1604539213       25.2407136534
  H         8.1043729964        6.1533412201       26.8928684679
  H         8.4663953319        6.6661554324       25.3353971717
  C         6.7594053622        3.8049945610       25.9464486654
  C         7.4723195678        4.3493417388       23.9987770343
  C         5.7634840900        6.0761099220       25.0334594234
  C         7.0385528081        2.6590821570       25.1820764300
  C         6.1797534846        3.3909423074       27.1871729649
  C         7.5571136466        2.9994081064       23.9548197006
  C         7.9562428069        4.8696348366       22.8250796757
  H         6.0565162777        6.9265646105       24.4130900048
  H         5.4285516515        6.6137197740       25.9461585500
  C         4.5107740732        5.1951774737       24.6710689786
  S         6.6847524807        1.2013920200       25.9791184034
  C         6.3300184124        2.0356088277       27.3559230934
  H         6.0372889724        4.2269567936       27.8897782494
  C         8.0071196674        2.3020169850       22.8315634533
  H         8.0233827332        5.8821411157       22.6875034371
  C         8.4681168200        4.2606006699       21.6915147256
  H         4.6447208320        4.5118495154       23.8364496377
  H         4.1462455436        4.6019193403       25.5154890905
  C         3.1970590283        5.8564384150       24.2741155136
  C         5.8162963931        1.2711089138       28.6092923970
  C         8.4419430813        2.9625571401       21.6240065626
  H         7.9135390321        1.2704251615       22.7347845648
  C         8.8469821661        4.6226224566       20.4032634111
  H         2.7839315884        5.2462595421       23.5204534628
  H         3.4993647301        6.6729744946       23.6224526194
  C         2.3218827190        6.4202882246       25.4840775435
  C         5.8750851072       -0.1064963049       28.8618011353
  C         5.3770935594        2.1142502237       29.7503575969
  C         8.7451683635        2.1226531648       20.4020285864
  C         8.9731854449        3.4966697519       19.5655601015
  S         9.1214805053        6.0664721510       19.6124503676
  H         1.6876426663        7.2349787999       25.0268008160
  H         2.9646804856        6.8604949449       26.2803354379
  C         1.6157468181        5.3068969899       26.1126274301
  N         6.1395191071       -1.0836152029       27.8993053809
  C         5.6026270497       -0.6477127135       30.0689503412
  C         5.2048989062        1.5288339780       30.9401246570
  H         5.2739739932        3.0878796470       29.5842314098
  C         7.6780528468        1.2084029395       19.8290418458
  C        10.0674800489        1.4799292437       20.6321763768
  C         9.3426709049        3.8278655373       18.2910522702
  C         9.3580109519        5.1597207630       18.1520405659
  H         0.9834864150        4.7442027131       25.3406579298
  H         2.1614525226        4.4727533142       26.6702585722
  C         0.7696354930        5.7184760051       27.3666032575
  S         6.3039048198       -2.5201674975       28.5661461682
  N         5.6456254838       -2.1076305161       30.0084798592
  C         5.2986897987        0.0775909426       31.1739751060
  H         4.8498163398        2.1102235332       31.6949691599
  H         7.5158587032        0.3920578267       20.5570761851
  H         8.1643521340        0.7596477956       18.9000142247
  C         6.4309434787        2.0800676520       19.5538069395
  H        10.4659302034        1.0182648556       19.7469887225
  H        10.0340316856        0.7340410065       21.4069736837
  C        11.3577703477        2.3502971695       21.0159799398
  H         9.5956181083        3.0634633330       17.4885423128
  C         9.8487539915        5.8751422823       16.9086693196
  H         0.2720412363        4.7205356944       27.5318331565
  H         0.0290565124        6.6275593869       27.1884354056
  C         1.5898433836        5.6536033258       28.6894875241
  C         5.0177616389       -0.6219970909       32.4092593126
  H         6.5903432004        2.9476413800       18.9615479425
  H         6.0109935235        2.2738698312       20.5559776527
  C         5.2748968282        1.2837076791       18.9155484148
  H        10.9968120355        3.1881674159       21.6914282094
  H        11.6997040979        2.8671732948       20.1392334484
  C        12.4177580344        1.5156791176       21.5940380419
  C         9.8901440268        7.2582881581       16.7818906441
  C        10.1547426100        5.1390503777       15.6036689808
  H         2.1463524187        4.7373477611       28.8253778577
  H         2.3015684776        6.4204709467       28.8267921126
  C         0.7630914486        5.6412858123       30.0062371160
  H         5.1468829883       -1.6872482838       32.4732806843
  C         4.6810111744       -0.1231793744       33.6761403753
  H         5.0540904399        0.4874432508       19.6700166839
  H         5.5247150514        0.6432188352       18.1885121316
  C         4.0534275450        2.0406983950       18.4731832575
  H        11.9844629559        0.7047389850       22.2487049932
  H        12.9584096485        1.0172899390       20.7824684819
  C        13.4182436931        2.4081171090       22.2417474665
  N         9.5994456292        8.2352230528       17.6980171460
  C        10.3516026930        7.8692953083       15.5749405227
  C        10.5403600830        5.7306118127       14.4385572293
  H        10.2211074730        4.0992306831       15.7228230932
  H        -0.2837177508        5.3642099769       29.6754231289
  H         1.0828372855        4.9461005174       30.8030068837
  H         0.5917308485        6.6474291222       30.3706922184
  S         4.3963855594        1.5171529090       34.1678618582
  C         4.6054423766       -1.1068022948       34.7756605609
  H         4.0131783435        3.0819718392       18.8732986077
  H         4.2692522890        2.0731762191       17.3681565638
  C         2.7369801819        1.2397329397       18.6144148151
  H        13.0020436837        2.8916875732       23.0899490520
  H        13.6321219924        3.1976401211       21.5155310191
  C        14.8542509780        1.7974271558       22.3751347446
  S         9.7648686424        9.7305384490       17.1101768200
  N        10.3561803910        9.2296056645       15.6766294033
  C        10.6488224223        7.1799233479       14.4178507506
  H        10.7641482092        5.2495260790       13.4997064544
  C         4.0277662866        0.7993455724       35.7692850627
  N         4.1395894683       -0.5154719539       35.8854743557
  O         4.7232723830       -2.2938106679       34.5918116830
  H         1.9390043389        1.9609675022       18.7193577702
  H         2.7463648908        0.8424199845       19.5919599437
  C         2.4970745927        0.1734799690       17.6022161570
  H        14.6501349013        0.9119627599       22.9307235036
  H        15.3891738337        1.4630542653       21.4529475375
  C        15.6290088387        2.6987135540       23.4175462766
  C        10.8740656229        7.9597228546       13.2680427844
  S         3.7659525301        1.5686999050       37.3112866319
  C         4.1598991736       -1.3460691411       37.1167482493
  H         2.1320681310        0.7917782444       16.7948893562
  H         3.3718088900       -0.3784787855       17.3418220813
  C         1.5255530024       -0.9349077387       18.0526282324
  H        14.9336636840        2.7086260646       24.2181950980
  H        15.7364189084        3.6949560415       23.0599914800
  C        16.9705265649        2.0984806300       23.6795329143
  H        10.6466824911        9.0018455302       13.2555074671
  C        11.3592022472        7.6976287028       12.0352663985
  H         3.4371353130       -0.9246569346       37.8277692187
  H         3.6921871044       -2.3062905105       36.7828615512
  C         5.6698852395       -1.5044712526       37.5928988559
  H         0.5399067988       -0.5425221726       18.1485526968
  H         1.8050880291       -1.1302821571       18.9874884839
  C         1.6015438687       -2.2020407701       17.2146660227
  H        17.4236617796        2.4178616066       24.6645921139
  H        16.8455497030        1.0649856766       23.7069590247
  C        17.8059785400        2.4149695476       22.3178168994
  S        11.9054252956        6.1637060631       11.4251306880
  C        11.4387954262        8.7467357763       11.0363671816
  H         6.3739785210       -0.8578005985       36.9930335775
  H         5.8065350269       -1.3049236111       38.6988286266
  H         6.0350142603       -2.3987854473       37.4841797602
  H         0.9041103818       -2.9809188502       17.2481561457
  H         2.4357379116       -2.7043914168       17.6201983484
  H         1.7840405150       -1.9735177535       16.2350443533
  H        17.1689236116        2.8866946449       21.5225756055
  H        18.2562612364        1.4400380181       21.8405399277
  H        18.7336149218        2.9319978852       22.4045719865
  C        12.3879682442        7.0729613174        9.9557506790
  N        12.1073062155        8.3391095272        9.9509785293
  O        11.1619274549        9.8942109211       11.1575261991
  S        13.0678374912        6.2485448755        8.5213454036
  C        12.2437228473        9.1668330416        8.8120224523
  H        12.3505887543       10.2180834433        9.1993653199
  H        13.0343885801        8.9154594965        8.1955994997
  C        10.9964896029        9.1430323354        8.0402764575
  H        10.2156747357        8.4472526686        8.3491442229
  H        10.4906241878       10.1469917776        7.7870005914
  H        11.1454003837        8.8381507767        6.9791206345
  H         4.7026075412        1.3616833236       12.2254044488
  C         4.0346949564        2.1205800564       12.3664562743
  H         4.6037447240        3.0100834649       12.3531109363
  C         3.0111115076        2.1669081967       11.3364865169
  C         3.3287417497        2.0268640400       13.6603643034
  C         3.7079346822        2.3448471046        9.9736161561
  H         2.3947985312        3.1675937129       11.5693462632
  H         2.2923890357        1.3405469718       11.3557721553
  H         2.4246277560        1.4502532419       13.6573864350
  H         2.6594264681        2.8201407883       13.9584471637
  H         3.9026753670        1.5145380404       14.4313783746
  C         4.4642097278        1.1112466255        9.4541802411
  H         3.0874265781        2.7017162994        9.2143452114
  H         4.2953636923        3.2051290613       10.1830759426
  C         5.1694630495        1.4549818673        8.0343175598
  H         3.8505347626        0.2838339290        9.2929378655
  H         5.3513810702        0.8607764718       10.0633708694
  C         6.5516475280        2.3270930778        8.2551093826
  H         4.4574558842        1.7623837242        7.3251151112
  H         5.5549907600        0.5499619102        7.6462441952
  C         7.7999966658        1.6730252919        8.7272046195
  H         6.6931323407        2.7176211977        7.1806885398
  H         6.3352942396        3.1677776889        8.8549558083
  C         9.0576398849        2.5189681871        8.9192790173
  H         8.1844510667        0.9146398738        8.0076002853
  H         7.5449224426        1.0382080940        9.6256640403
  C         8.6525300766        3.8422712153        9.6508651065
  C         9.5381418179        3.2701646872        7.6893780991
  C        10.2237535924        1.6885845895        9.6660275373
  C         8.9676081671        4.9996447584        8.9366462866
  C         8.1169328561        4.1269130198       10.8934939506
  C         9.6160624543        4.6320436079        7.7361528341
  C         9.9661923366        2.7181941363        6.4696944261
  H         9.7887697244        1.2592581657       10.5282393927
  H        10.5465441944        1.0631534027        8.8720178783
  C        11.3840967196        2.5860540180       10.1384400273
  S         8.4101913687        6.4612044826        9.7259594782
  C         8.0134056938        5.5036678357       11.0511622151
  H         7.7134602695        3.4772763136       11.6066804991
  C        10.0996558064        5.3170210960        6.6390116786
  H        10.0053429821        1.6822473741        6.3137799032
  C        10.4454070510        3.4479634245        5.4605359364
  H        11.1058694061        3.5219226231       10.5289431697
  H        11.9751049368        2.8764897301        9.2421464615
  C        12.3498653227        1.9507568829       11.1230602797
  C         7.5924730714        6.2268333008       12.3285943050
  C        10.5414961430        4.7796082640        5.4621191116
  H        10.0468781958        6.3469221707        6.7015472064
  C        10.8512285826        3.0406399302        4.1279028954
  H        13.1482633447        2.5401442520       11.0166299315
  H        12.6760324828        0.9853855662       10.9404238387
  C        11.7585723050        2.1211217613       12.4853070818
  C         7.6309714401        7.6153127761       12.5982187291
  C         7.1931829905        5.3522213996       13.5181155864
  C        10.9791650096        5.5262072724        4.2079549980
  C        11.1682689114        4.2049818280        3.4225192659
  S        11.0896176494        1.5890789623        3.3787878857
  H        11.5485284215        3.1217063299       12.5889527791
  H        10.9126402198        1.5138077920       12.7406234547
  C        12.8267173194        1.8201508542       13.5599695205
  N         8.1799781058        8.5766551033       11.7556605448
  C         7.3894851167        8.1136121998       13.9358817577
  C         6.9453810409        5.8653770586       14.8122857797
  H         7.0495247761        4.2895457240       13.4046100829
  C        12.2210383463        6.3897009986        4.3512872295
  C         9.7720524014        6.2411096812        3.5933785620
  C        11.5068627163        3.7724037029        2.0531127149
  C        11.4236323675        2.4455182327        1.9343209279
  H        13.7181880271        2.4169847725       13.6234705733
  H        13.1453488901        0.7909538567       13.4627332524
  C        12.2558035258        2.1438140809       14.9231214196
  S         8.0027391843       10.0552969758       12.4583551874
  N         7.5447628497        9.5125553554       13.9693367250
  C         7.0289924284        7.2905184716       15.1038625503
  H         6.5448069180        5.1062346798       15.5355160446
  H        12.0774958309        7.1555246833        5.1102230652
  H        12.3362585271        6.9786636120        3.4976655830
  C        13.6378598753        5.6788979203        4.5938683832
  H         9.3665123425        6.7725437910        4.3947887656
  H        10.1773091177        6.9896943224        2.8779935437
  C         8.6317366824        5.4143614992        3.1431375346
  H        11.6759602779        4.5504065373        1.3348752867
  C        11.7172285197        1.7029555765        0.6826845423
  H        11.8096010713        3.0928451188       14.9648717688
  H        11.4557336285        1.4476804212       14.9407966322
  C        13.1988282183        1.8066041998       16.1492286586
  C         6.8253362789        7.8601025199       16.3780002816
  H        13.5829634552        4.9476558368        5.5113161965
  H        13.8547345692        5.1073782324        3.6789439752
  C        14.7435754502        6.6193062283        4.9210322994
  H         8.2080122684        4.6000820216        3.8958399437
  H         8.9619353247        5.0470439343        2.2026438821
  C         7.4027293058        6.3587825734        2.9247365683
  C        11.8616228639        0.2486149890        0.5038462756
  C        12.1185210875        2.4359959528       -0.5765575164
  H        14.1876864473        2.4114679217       16.1405793410
  H        13.3111653774        0.7310180387       16.0507094771
  C        12.6198358372        1.8721078308       17.5468490892
  H         7.3198764526        8.8137091655       16.4851933243
  C         6.4069541068        7.4648252150       17.6586572969
  H        14.4897796164        7.1788284874        5.9019329875
  H        14.7961369367        7.2350629599        3.9924380736
  C        16.0980768369        5.8523853088        5.1546397192
  H         6.7841000408        6.5539574832        3.8065149013
  H         7.9135796174        7.2661090560        2.5705600316
  C         6.4398419268        5.9034905390        1.7779514553
  N        11.5450557798       -0.6140203935        1.5325773094
  C        12.2490253248       -0.3653441140       -0.6094886117
  C        12.3847208423        1.7985177881       -1.8334498887
  H        12.0158884620        3.5086615376       -0.4011843794
  H        11.6000622146        1.4519253692       17.5921264469
  H        12.3924498190        2.9671719086       17.8212017855
  H        13.2825631308        1.5948877702       18.3549457419
  S         5.9465756908        5.8282316905       18.0466233909
  C         6.2769432646        8.4850938691       18.6916367912
  H        16.0406899431        4.8326589611        4.8615526829
  H        16.9690239175        6.2747862842        4.5703314091
  C        16.4947579311        5.9094670423        6.6880368697
  H         6.1966563491        4.9125431285        1.8020723245
  H         6.9481772644        6.0686964329        0.7827004539
  C         5.1135799331        6.6215288923        1.8110043035
  S        11.7296159833       -2.1573256757        1.0208892323
  N        12.3023045604       -1.8167426193       -0.4600482759
  C        12.5754863253        0.2593139509       -1.7981853486
  H        12.3065731477        2.3191206670       -2.7964913761
  C         5.7647619809        6.4832669262       19.6989602563
  N         5.9323807131        7.8158656496       19.8515129709
  O         6.5677542794        9.6665511276       18.4968576134
  H        16.5760996570        6.8692200209        7.1905673935
  H        15.6425531021        5.4543832682        7.2921078737
  C        17.7091753710        5.0979169269        6.9695748090
  H         4.3236954518        6.0623611121        1.2831150477
  H         4.8048171297        6.8294728085        2.8471326032
  C         5.2940752764        7.9963210808        1.1085582617
  C        12.7900865176       -0.5418994987       -2.9999060808
  S         5.2027961579        5.5369416352       21.1254770856
  C         5.8088890418        8.6292537263       21.0886873238
  H        17.6110891646        4.9035760611        7.9832632804
  H        17.8301819169        4.1950127311        6.4761558580
  C        19.0218662121        5.9757675596        6.8873643104
  H         5.1953170839        7.6827155945        0.0161062428
  H         6.2395795093        8.4834239399        1.2347460190
  C         4.1936728127        9.0592152233        1.3908603185
  H        12.6585801854       -1.6058875378       -2.8088225632
  C        13.2833717448       -0.1438735817       -4.2380466557
  H         5.1150736743        8.1963719625       21.7774476347
  H         5.4449204523        9.5553596239       20.6309080146
  C         7.1757126952        8.8581154906       21.8078058316
  H        19.6515120214        5.9604628520        7.8413787310
  H        18.8296718571        6.9296051346        6.5472489979
  C        19.9013742918        5.4502913014        5.7782381846
  H         3.1498085118        8.6637376945        1.3780834242
  H         4.4772552187        9.6064991108        2.3077807419
  C         4.3478721606       10.1235518380        0.1979197035
  S        13.8362790786        1.3724562931       -4.7995232277
  C        13.5429775172       -1.2448471221       -5.1847293902
  H         6.9835555949        8.9471745897       22.8691449192
  H         7.7101683125        9.7869861658       21.4409337141
  H         7.6741005029        7.9990280119       21.6761915940
  H        20.8136564871        6.0389590463        5.7418498212
  H        20.1597722012        4.3315838114        5.9155217192
  H        19.3850677528        5.5588631581        4.7937561329
  H         3.6559428553       10.9667614803        0.3324497336
  H         5.4002561874       10.4199559533        0.2025035195
  H         4.1138626912        9.5578736858       -0.7264960457
  C        14.2128991625        0.6219389994       -6.3214526067
  N        14.1529594682       -0.7950682879       -6.3170927443
  O        13.0929966414       -2.3902374153       -5.0043566409
  S        15.0998983472        1.5197555753       -7.5839511383
  C        14.4016764173       -1.6364609006       -7.4415649237
  H        14.6415763178       -2.6575249421       -7.1704146107
  H        15.2319463829       -1.2449913130       -8.1202237512
  C        13.0669604528       -1.8668772565       -8.1766727168
  H        13.1017435640       -1.7240199413       -9.1447268511
  H        12.2336797247       -1.5866854901       -7.6786004501
  H        12.8417143784       -2.8884951784       -8.1211073828
