352
 i =    26700, time =    13350.000, E =        99.1242893098
  H         9.7315155953        5.1624276100       31.5978710393
  C        10.5406286963        5.8745458531       31.7981860394
  H        10.0161050635        6.5229957104       32.4704920926
  C        11.1906929189        6.5434963064       30.6047077928
  C        11.3883128030        4.9951554303       32.7343156772
  C        11.6862149441        5.5169394248       29.5558928109
  H        10.4235909062        7.2551371789       30.1892748699
  H        12.0236586044        7.1925579583       30.9663032390
  H        10.8825109573        4.0812229674       32.9344786516
  H        12.3503187844        4.9591159045       32.0991870438
  H        11.5976518247        5.4540556950       33.7303669115
  C        10.5602830714        5.1002902653       28.6531318846
  H        11.9954058644        4.5978126559       30.0939045148
  H        12.6713421046        5.6256263782       29.0808252497
  C        10.7657786520        5.4642479806       27.1301111010
  H        10.4981676166        3.9795454406       28.7837196042
  H         9.6077935676        5.4039012774       29.1705120399
  C         9.7260610705        4.8357047863       26.1485519776
  H        11.7475611288        5.1167803112       26.9089763772
  H        10.7379228781        6.5262109832       26.9353387930
  C         8.4770233044        5.7580958133       25.9134166749
  H        10.0828652596        4.4512211618       25.1933760745
  H         9.3490307287        3.9243321760       26.7040716117
  C         7.2528387445        5.0738292046       25.1731668333
  H         8.1192132956        5.9942834242       26.9155612231
  H         8.7240350929        6.7154797917       25.5616637074
  C         6.8816046463        3.7451841113       25.8970476601
  C         7.6906642960        4.4344316265       23.8868534522
  C         6.0108433734        5.9620261840       25.0769825883
  C         7.2003811244        2.6722141214       25.1017686335
  C         6.3966991868        3.3871109150       27.1469199774
  C         7.6912629876        3.0485682066       23.8487076864
  C         8.0882227699        5.0365918693       22.7275283275
  H         6.1952369941        6.8089854234       24.4198147097
  H         5.7397584135        6.5097545483       25.9404276424
  C         4.8116588206        5.3260527967       24.4090855728
  S         6.9223941501        1.1630218111       25.9564539434
  C         6.3358358627        2.0227935668       27.3168095991
  H         6.3107367412        4.1835727597       27.8492893590
  C         7.9954009499        2.3694235721       22.6907669786
  H         8.1740491717        6.1234625695       22.8344106711
  C         8.5206819044        4.3581806606       21.5898609781
  H         5.0202498185        5.0092647546       23.3826065676
  H         4.5392596035        4.4494456657       24.8553284270
  C         3.6403302108        6.2487627757       24.3905092528
  C         5.9035646673        1.3587384085       28.5764173469
  C         8.5066434456        2.9943197630       21.5193741017
  H         7.8553260212        1.3310601422       22.7918379852
  C         8.9867682797        4.6949272948       20.3404837332
  H         2.9137023009        5.8543544315       23.6702027145
  H         3.8254643155        7.3536125603       23.9789580789
  C         2.8224685967        6.3664484828       25.7525844622
  C         5.8834389924       -0.0725632024       28.8231355475
  C         5.6398782768        2.1995584618       29.7892101251
  C         9.0215874633        2.2953541646       20.2826524897
  C         9.1903062359        3.5804514362       19.5499088060
  S         9.4301470186        6.1870748035       19.6233649386
  H         1.8907165006        6.9468416335       25.5978200067
  H         3.3672582150        6.8817738887       26.5338013182
  C         2.3276100971        4.9920841512       26.1872058260
  N         6.3073894076       -1.0440381264       27.8896695291
  C         5.6051853379       -0.6422801887       30.1013207811
  C         5.3592776178        1.6192755192       30.9948247043
  H         5.7757969869        3.2812942531       29.8524815004
  C         7.9633123250        1.4677390108       19.5939239095
  C        10.3309547259        1.5156106969       20.3868743748
  C         9.6954300247        3.9759648469       18.3211079306
  C         9.6985508581        5.3460453253       18.1624690723
  H         1.7069503270        4.6353765071       25.4044756026
  H         2.9756250804        4.1599990015       26.4024938060
  C         1.5045056517        5.2054266407       27.5329086906
  S         6.4061965310       -2.4932341773       28.6612910472
  N         5.9308123415       -1.9861853510       30.1770676463
  C         5.3648306791        0.1971965190       31.2067439269
  H         5.2175250740        2.2884998064       31.8098003929
  H         7.6354430358        0.7540637098       20.3522646880
  H         8.5045180013        0.8789057698       18.8376851143
  C         6.7627398826        2.3228325017       19.0435888690
  H        10.5204400832        1.1000859113       19.3659122179
  H        10.0319050733        0.8055252740       21.1269438666
  C        11.5343749476        2.2316697559       20.9633523542
  H         9.9880906353        3.2307844496       17.6159647991
  C         9.9892979201        6.0615939347       16.8494802732
  H         0.7938327809        4.4008632341       27.5097118330
  H         0.8936998057        6.1227257492       27.5716442723
  C         2.3566383472        5.0567856764       28.7517639819
  C         5.0699097873       -0.4801164807       32.4170610588
  H         7.0583249068        2.9079028183       18.2498928786
  H         6.3626255821        2.9878464130       19.7804293781
  C         5.7338208744        1.2858069423       18.5860750839
  H        11.3430595409        2.4616663870       21.9971350845
  H        11.7554129338        3.2283569849       20.4690647169
  C        12.9504685310        1.5345462756       20.7478324534
  C        10.0727992631        7.5077201539       16.6229061279
  C        10.2141761487        5.2144897202       15.6432255946
  H         2.9216801676        4.1417255968       28.7294336104
  H         3.1599799006        5.7482243264       28.7108412893
  C         1.4916491799        5.2368071399       30.0200799467
  H         4.9927497699       -1.6086572108       32.2831079111
  C         4.8038548783       -0.0428936034       33.7341481996
  H         5.2930742885        0.7970172993       19.4424497537
  H         6.3607750159        0.5893844285       17.9699450572
  C         4.8174951774        1.9889069427       17.6352974442
  H        12.9677124798        0.5678387599       21.2553373676
  H        13.1906855066        1.3567866196       19.6821731481
  C        13.9891774669        2.3726693748       21.4555977181
  N         9.7931138993        8.4677853722       17.6146528775
  C        10.4101876840        8.0118031333       15.3922849269
  C        10.5952919623        5.8135766167       14.4209809157
  H        10.2277879163        4.1009059655       15.7407463452
  H         0.7870854013        4.5046864750       30.2073959760
  H         2.0913646745        5.0269384636       30.9210581994
  H         1.1228873299        6.2863226742       29.9907691919
  S         4.5253677941        1.5762865154       34.1629641341
  C         4.5580856057       -1.0279482201       34.7931124236
  H         4.7060051557        2.9829708061       18.1275691999
  H         5.2750593803        2.2653797724       16.6642813058
  C         3.4488933824        1.2743206494       17.5430691945
  H        13.5160855745        3.2967329231       21.9347929012
  H        14.5890227837        2.7824054177       20.6407433600
  C        14.8305383333        1.5727171605       22.5141451082
  S         9.8050659989        9.9300349957       16.9181334587
  N        10.3995595582        9.4338568147       15.4565633147
  C        10.7602222243        7.2796562834       14.2594221479
  H        10.6834729540        5.1697948162       13.5813106304
  C         4.3411753312        0.9918063592       35.8382269472
  N         4.3183514120       -0.3921625718       35.9409643241
  O         4.7347477324       -2.2267657538       34.6270749268
  H         2.7838526511        1.5676774191       16.7399254894
  H         2.8549564136        1.4493580577       18.4147188265
  C         3.6725040742       -0.1987671423       17.3519408171
  H        14.2720225832        0.9449904283       23.1850672047
  H        15.4363718380        0.8165145030       21.9799116627
  C        15.6500758192        2.4643071247       23.4007955104
  C        11.0789910937        8.0315932577       13.0694235308
  S         4.1950261976        2.0339948837       37.3205930485
  C         4.1615641005       -1.0462728648       37.2218584987
  H         4.3896032566       -0.2403006248       16.5561412321
  H         3.9250908032       -0.7087611673       18.2503715481
  C         2.4020886708       -0.9108527979       16.9726043421
  H        15.0051197416        2.8675812935       24.2173742222
  H        15.9359002788        3.2944333745       22.7402499524
  C        16.9271090551        1.7527743888       23.8456074439
  H        11.0055863548        9.0998209494       13.1246256962
  C        11.6358078413        7.6706538926       11.8680987915
  H         3.4476174534       -0.4769736812       37.6898212881
  H         3.6719876621       -1.9826542701       37.1168432973
  C         5.4544028579       -1.1354397227       38.0057246433
  H         2.2402398767       -0.7694835366       15.9107463927
  H         1.4981596844       -0.4611953637       17.3815864069
  C         2.5628344176       -2.3301121482       17.0824479722
  H        17.1922473667        2.3074351257       24.7403599596
  H        16.8785700542        0.6956795586       24.1416251345
  C        17.9250314507        1.8043226439       22.7029010458
  S        12.2320618505        6.1531511985       11.4519991583
  C        11.6571981233        8.7130404724       10.8434278149
  H         6.3098615772       -1.2713482688       37.2895632994
  H         5.7275355606       -0.3074919697       38.6678795602
  H         5.3278797871       -1.9863883425       38.7334429091
  H         1.9669285239       -2.9581810182       16.4163513217
  H         2.2783606281       -2.7653405702       18.0251870528
  H         3.6231352348       -2.6742907950       17.0313887148
  H        17.4490070768        1.8888009978       21.7429468065
  H        18.6418039826        0.9669183526       22.7577862183
  H        18.5505579676        2.7142366975       22.7292504269
  C        12.4389349897        6.8387939150        9.8534199727
  N        12.0951265782        8.1301830801        9.7207994514
  O        11.1908749472        9.8990396069       10.8758537558
  S        13.0383153336        6.1009183496        8.4265840214
  C        12.3526976150        8.9782987421        8.5820577108
  H        12.7052721598        9.9639013988        8.8851569736
  H        13.2008688165        8.5629993923        7.9474121592
  C        11.0235753119        9.2171225603        7.8195279553
  H        11.2763206725        9.3759112405        6.7475113169
  H        10.3930808160        8.3931697537        7.9057065709
  H        10.5773763454       10.0681380239        8.2669500298
  H         4.3567324015        0.9493160109       12.3931940711
  C         4.0060054824        1.9251496913       12.4715798449
  H         4.8657359147        2.4962901221       12.6042122035
  C         3.1105554408        2.0819837751       11.2232088542
  C         3.1469968297        2.0643774815       13.8285955274
  C         3.9392947867        2.4250375937        9.9279664775
  H         2.2804858765        2.7428230919       11.3755842080
  H         2.6988618899        1.0763991921       11.1090065925
  H         2.8210347602        1.0999549644       14.1665711658
  H         2.3398339513        2.7801139333       13.6886572532
  H         3.6728541187        2.4113021124       14.7193603603
  C         4.7212189183        1.1326819355        9.3647326795
  H         3.3687402498        2.8267883765        9.1463169571
  H         4.7228471541        3.0917984957       10.2869173624
  C         5.4676864597        1.4659115502        8.0496121332
  H         3.9754971335        0.3077718008        9.1397992664
  H         5.4689431376        0.8024702444       10.0368123251
  C         6.6757899445        2.4512463692        8.2344059932
  H         4.6464338712        1.8888240076        7.4115583840
  H         5.8233989720        0.5843587893        7.4756929979
  C         7.9242625884        1.7458403991        8.6508370921
  H         6.8943883702        3.0643551628        7.3328869622
  H         6.4119880004        3.1718141154        8.9899778365
  C         9.0920897905        2.7817864643        8.8994041636
  H         8.2016736470        0.9687414295        7.8577875208
  H         7.6923171550        1.2682974061        9.5712096442
  C         8.7624961431        4.1633709934        9.5663197914
  C         9.5539711035        3.4544076051        7.6667853918
  C        10.1885513664        2.0475420202        9.7939764235
  C         9.1059989969        5.2604896592        8.7877888425
  C         8.1443302171        4.5305947227       10.7681127871
  C         9.5157527159        4.8241399580        7.5306191810
  C        10.1013864426        2.8385534052        6.5235153270
  H         9.7046572352        1.7109012183       10.6908513699
  H        10.5360758585        1.2247446146        9.1916920203
  C        11.4259742128        2.8915344524        9.9650847993
  S         8.9780073391        6.7533512702        9.6098740350
  C         8.2163215499        5.9129386059       10.9063440461
  H         7.7963102962        3.7462961014       11.4351688258
  C         9.9746153338        5.3757082835        6.3759440783
  H        10.1355671640        1.7403855455        6.5690866342
  C        10.5338842204        3.4056288063        5.3927527147
  H        11.1918061042        3.9029676452       10.1734533637
  H        11.7698686072        2.9530083909        8.9842939137
  C        12.4468761101        2.3333650439       10.9172572064
  C         7.7875799718        6.6536064319       12.1005549125
  C        10.5107821949        4.7281858762        5.2903223899
  H        10.1269861308        6.4371061314        6.3582467324
  C        10.9328972170        3.0238475422        4.1139583651
  H        13.4185145266        2.8774409241       10.9245678745
  H        12.5417033443        1.3561832230       10.4548730105
  C        12.0289090723        2.1031239258       12.4255422781
  C         7.8869530378        8.0629021254       12.3180537006
  C         7.2464965290        5.7971098880       13.2267443020
  C        10.8080389881        5.3855180992        3.9356926127
  C        11.0822593613        4.0829384517        3.2417257837
  S        11.0901460644        1.4140640870        3.2968246480
  H        11.5030510277        2.9786556038       12.9138388719
  H        11.4259006635        1.2298857239       12.4102659659
  C        13.2860745124        1.8569175794       13.2488539300
  N         8.2045499654        8.9994911081       11.3962914569
  C         7.6541451094        8.5674863586       13.6115947758
  C         7.0796948427        6.3340083685       14.4440753525
  H         7.1503896193        4.7178167253       13.1352343394
  C        12.0940141135        6.2270862461        4.0577709869
  C         9.5559614777        6.1302210479        3.4296855280
  C        11.3452640232        3.5598197504        1.9843728764
  C        11.4585640604        2.1920425978        1.8841632633
  H        13.8674840494        2.7436829754       13.5449263472
  H        14.0746758471        1.2165430622       12.7491509393
  C        12.9259557946        1.0799634670       14.4995913856
  S         8.1374455171       10.4427168650       12.0800915667
  N         7.6923423314        9.9428416012       13.5862432816
  C         7.1689117346        7.7674485882       14.6446157242
  H         6.7747837702        5.7469503770       15.2655129151
  H        11.9598690617        7.0360975026        4.7900964418
  H        12.4355834528        6.6237221524        3.1350506226
  C        13.2242738336        5.4104007473        4.6518711706
  H         9.0568957386        6.8723740372        4.1245637659
  H        10.0269753391        6.6708973164        2.5581956260
  C         8.3582998447        5.2233153005        2.9820579030
  H        11.3882400484        4.2838327427        1.1523745604
  C        11.8784947443        1.3332088313        0.7315551046
  H        12.0712649246        0.3909779526       14.1758632357
  H        13.7282063621        0.5261390852       14.9543837331
  C        12.3045232485        1.9732984520       15.5704111003
  C         7.0296141376        8.3559835633       15.9185873089
  H        12.9785248157        4.9319366090        5.5168695293
  H        13.6125710410        4.6939608737        3.9584284005
  C        14.4083646401        6.2661166704        5.0290062824
  H         8.1279120498        4.6243748076        3.8703865291
  H         8.7007318770        4.5671610259        2.2060925839
  C         7.0916269129        5.9630539377        2.4531804960
  C        11.9948585513       -0.0899241297        0.7232784921
  C        12.1542942401        2.0840339980       -0.5458727904
  H        11.4320348529        1.4769004980       15.9311563330
  H        11.9479462561        2.8578808132       15.1255773462
  C        13.2685540044        2.3418864823       16.6742721326
  H         7.4386676297        9.3273414675       16.0514646516
  C         6.7224203493        7.9008041043       17.1897560616
  H        14.2514986126        6.9238141054        5.8407242989
  H        14.6060053494        6.9742637246        4.1804239271
  C        15.6422434860        5.3643125998        5.2284769131
  H         6.9246747509        6.7730529638        3.1477539778
  H         7.1328136580        6.3966737984        1.4383546311
  C         5.8976276258        5.1014896176        2.4193707863
  N        11.8085261949       -1.0208839914        1.6773116808
  C        12.3340139668       -0.6726290192       -0.5321930356
  C        12.3920852258        1.4496099728       -1.7332242747
  H        12.0491108984        3.1479342622       -0.5309772536
  H        13.8834447576        3.1839089681       16.3696842789
  H        13.8396376417        1.5246372709       16.9740199017
  H        12.8019150345        2.7470426741       17.5477909933
  S         6.2813976160        6.3197832399       17.6904992585
  C         6.7566449404        8.8947375626       18.3289340575
  H        15.3634101929        4.5893916373        5.9095029257
  H        15.9156569397        4.8864302097        4.3076319927
  C        16.6897608388        6.2129731874        5.9548974412
  H         5.4467051752        5.0894532272        3.4462200110
  H         6.1730768791        4.1181275174        2.3775588846
  C         4.8836720440        5.3705547923        1.2359821974
  S        11.6782214560       -2.5478691007        0.9782534292
  N        12.1528660772       -2.1045607738       -0.4955451989
  C        12.5307400400       -0.0256985171       -1.7785053217
  H        12.4677925756        2.0156478063       -2.6454813022
  C         6.1352286911        7.0268916960       19.3651264689
  N         6.3107448637        8.3535244366       19.4648274744
  O         6.8307883924       10.1563263622       18.1431260701
  H        17.4037457831        6.6525769659        5.2081811543
  H        16.2805498369        7.0251005243        6.4747065840
  C        17.4290094748        5.2744003857        6.8790020642
  H         5.3497741574        5.4722012804        0.2474444080
  H         4.1986457516        4.5144657775        1.1990546714
  C         4.0798004109        6.6135132740        1.4798781511
  C        12.7947900303       -0.7249337294       -3.0160441864
  S         5.6685794747        6.0014978979       20.7372402548
  C         6.2446999898        9.0328634212       20.7166864726
  H        16.7921020971        4.8864147316        7.6722432321
  H        17.7258037685        4.4984230592        6.2325169957
  C        18.6831116097        5.9258067522        7.5319825235
  H         4.4672723357        6.8626385187        2.4564312129
  H         3.0714816865        6.2175713879        1.6307966652
  C         4.2135449471        7.8397110039        0.6340516749
  H        12.6385839026       -1.7710310633       -3.0108901008
  C        13.3320702476       -0.3510310389       -4.1994590549
  H         5.3453879362        8.6819896420       21.2281981212
  H         6.0457839773       10.1326730848       20.5943374364
  C         7.4584623635        8.9324057315       21.6177061244
  H        18.8531124416        5.4523576281        8.5329331778
  H        18.6599460696        7.0166659786        7.7903972905
  C        19.8725420277        5.8746400378        6.5688904173
  H         5.2976568187        8.1841205855        0.5712191998
  H         3.9777508143        7.7000652739       -0.3770499447
  C         3.5186463523        9.0817328045        1.0835346813
  S        14.0145189093        1.2213862158       -4.6251478285
  C        13.2482297656       -1.2911755716       -5.3306552085
  H         7.3237736235        8.0551583403       22.2811731495
  H         7.6158707982        9.8588744462       22.1734416157
  H         8.3491289035        8.7952139622       21.0606624040
  H        20.5996460074        6.4475204712        7.0172966350
  H        20.2167783308        4.8674809957        6.2328980401
  H        19.6288681302        6.4297140386        5.7199144320
  H         2.6168866130        8.7430667992        1.6318469822
  H         4.1579749343        9.7374016965        1.6501627873
  H         3.1293695568        9.6458467221        0.2458936206
  C        14.4482932215        0.4669056813       -6.2029343427
  N        13.9259279748       -0.7884073270       -6.3811291253
  O        12.8427197673       -2.4426785203       -5.2078867102
  S        15.1941569285        1.3257301479       -7.5892298333
  C        13.9934026865       -1.5522472872       -7.6107313580
  H        14.2211002106       -2.5687574813       -7.5076498236
  H        14.7053239198       -1.1502506756       -8.3322552552
  C        12.6494641582       -1.4499944684       -8.2165300820
  H        12.7568753212       -1.4683816286       -9.2868437130
  H        12.2783711092       -0.4782169895       -7.9438780299
  H        11.9390464795       -2.2342643007       -7.9621243030
