352
 i =    21800, time =    10900.000, E =        96.4014539823
  H         9.6325720959        4.9347582815       31.4748160462
  C        10.0767821137        5.8905979407       31.7910944769
  H         9.3299267367        6.5500174185       32.2708770530
  C        10.7547879139        6.5979331094       30.6137518189
  C        11.1437352217        5.6886371208       32.9518494661
  C        11.7450451014        5.7241469090       29.7722992650
  H         9.9248954421        7.1276208722       30.0980968505
  H        11.3542056875        7.4361302866       31.0576281720
  H        12.0075213703        4.9746206898       32.8055359080
  H        11.5395854766        6.6005910755       33.2831812244
  H        10.6010888156        5.1945174111       33.7406233399
  C        11.1970915997        4.8151666484       28.6882125454
  H        12.2570127781        5.0166656393       30.4695566586
  H        12.5569041686        6.3575743222       29.3553081425
  C        10.8601154764        5.5872705580       27.3287900783
  H        12.0513177876        4.1297017922       28.4654176813
  H        10.3479950016        4.2376504066       29.0310019691
  C         9.8412167088        4.9506417439       26.4953697424
  H        11.7573099478        5.6158334828       26.8124365302
  H        10.5185573825        6.5567228916       27.4878734308
  C         8.5761752487        5.7398083402       26.3071819861
  H        10.3293481343        4.5301765840       25.6325921316
  H         9.6481388713        3.9547627942       26.9644826317
  C         7.3679374746        4.9554199297       25.6134175235
  H         8.1865634890        6.1547983430       27.2640011415
  H         8.6525486521        6.6304079069       25.6940628466
  C         7.0089143392        3.6052117030       26.2983312726
  C         7.8639702408        4.2166963844       24.4102533846
  C         6.1425622632        5.8821606562       25.2725436420
  C         7.3101411262        2.5367854572       25.5030440040
  C         6.4581265725        3.2699444086       27.5829309354
  C         7.8641441288        2.8810980781       24.3165551480
  C         8.3489250429        4.8756453843       23.2340791243
  H         6.3919007860        6.5977190788       24.4852901080
  H         5.9899744576        6.4847131615       26.1436266001
  C         4.9491209016        5.0354136445       24.8754138399
  S         6.8442421288        1.0778999383       26.2971318633
  C         6.3593681418        1.9169413404       27.6613050362
  H         6.4079145025        3.9990878743       28.3734103949
  C         8.3594642032        2.2388831839       23.2016380337
  H         8.2496100673        5.9967756540       23.1280247252
  C         8.7723888538        4.2538309676       22.1394319854
  H         5.1349109988        4.4274647930       23.9693708938
  H         4.6163719432        4.2601656677       25.6435122560
  C         3.7103871258        5.9747985754       24.5355250890
  C         5.9601769580        1.2385760374       28.9329773628
  C         8.8080914915        2.9253578227       22.0604394237
  H         8.3202504963        1.1739513725       23.1408410910
  C         9.1222273210        4.6712234109       20.8743035671
  H         3.2326372758        5.4563374192       23.7502605166
  H         4.0283860528        6.9023502408       24.0626431177
  C         2.8677727763        6.4085026466       25.6546393193
  C         5.9241784454       -0.1837611138       29.1310831408
  C         5.5774575102        2.0268581717       30.0913705870
  C         9.1539815799        2.2623201841       20.7519774941
  C         9.2753921081        3.6701838827       19.9715671003
  S         9.3426345061        6.2050984124       20.1977070636
  H         2.0961538278        7.0385424559       25.2402502225
  H         3.4910184337        6.9895483708       26.3892208085
  C         2.2981298652        5.2842998821       26.4279009281
  N         6.1423433574       -1.1161526936       28.1480856847
  C         5.7669845303       -0.8067564664       30.3595225027
  C         5.2026721180        1.4359972917       31.2779351993
  H         5.5021886101        3.1363317778       30.0479143393
  C         7.8674725356        1.4700016938       20.2560866892
  C        10.5468471091        1.4846452278       20.8320657096
  C         9.5815180118        4.1098149505       18.6875327397
  C         9.6287031917        5.4912862369       18.6496084591
  H         1.9530920584        4.5001305278       25.7785889218
  H         3.0485707154        4.9382284502       27.0403284973
  C         1.2007075914        5.7042113816       27.4836187524
  S         6.0337922021       -2.6690767030       28.8139412037
  N         5.6922912468       -2.1975347600       30.3137598399
  C         5.3273024887       -0.0484226078       31.5413916804
  H         4.8412984686        2.1103942824       32.1063703319
  H         7.5470939927        0.7144978430       21.0397114396
  H         8.1488522504        0.7348210958       19.4545636577
  C         6.6699437992        2.2576452219       19.7138590955
  H        10.8269630136        0.8162447364       19.9840963005
  H        10.3321468307        0.9346863436       21.7914393660
  C        11.7442801752        2.3591047299       21.1601340024
  H         9.7626698472        3.4575947653       17.8941466600
  C         9.9911045662        6.3015015774       17.4550638422
  H         0.2402297775        5.9063597759       26.9540806354
  H         1.6066992605        6.5937841313       27.8616671147
  C         0.7260003952        4.5962383102       28.4795980821
  C         5.0370179958       -0.7569433489       32.7863598140
  H         6.9729561813        2.8277954126       18.8164851399
  H         6.2407784126        2.8632429403       20.4722834728
  C         5.5841666756        1.2952641156       19.1322848693
  H        11.6249831970        2.9101381202       22.0686320339
  H        12.0121394083        3.0604391752       20.3937759896
  C        13.0595425712        1.5717366625       21.3048262886
  C        10.1048094598        7.6965565039       17.3362412617
  C        10.2430512515        5.5587457819       16.1819416222
  H        -0.3009488752        4.2281351884       28.3541440012
  H         1.3196672417        3.7059802175       28.5225538063
  C         0.7151892661        5.0919093388       29.8841604915
  H         5.1089926396       -1.7840444607       32.7808873366
  C         4.7022072721       -0.3634409676       34.0813417504
  H         5.3388918325        0.5656473680       19.9026106278
  H         5.9130790262        0.6966309635       18.3063717353
  C         4.3547357778        2.0288850466       18.6065889821
  H        12.8025065570        0.7497154041       21.9455422959
  H        13.2796237465        1.0766721378       20.3824924736
  C        14.3287626180        2.3511266327       21.7293054644
  N         9.9214692195        8.5456301434       18.3893153004
  C        10.3410356019        8.3477207644       16.1659637907
  C        10.6580283828        6.2264239242       14.9957503806
  H        10.1486198953        4.4814206014       16.1550582004
  H         0.4921588323        6.1544264218       29.9465018172
  H        -0.1535997633        4.6835139769       30.3584019460
  H         1.6642223407        4.7999996333       30.3885464313
  S         4.2854065148        1.2435466424       34.5744362984
  C         4.6128720874       -1.4340787542       35.0477053985
  H         4.1563948073        3.0429384613       19.0628254533
  H         4.4880076500        2.3421105826       17.5042428004
  C         3.0773215503        1.3062485767       18.8210444912
  H        14.5691485861        3.1219978504       21.1066548871
  H        15.2203540068        1.7552856203       21.5925012332
  C        14.3690570426        2.8436972154       23.1948088497
  S        10.0189870291       10.0613136415       17.7923435177
  N        10.2777910776        9.7604219396       16.2979766865
  C        10.6435900216        7.7008844630       14.9804402178
  H        10.8935649455        5.5628948206       14.2012415970
  C         4.0000564664        0.4758935761       36.1610413770
  N         4.2707909078       -0.9059882691       36.2255594832
  O         5.1489552381       -2.5559575865       34.8534543586
  H         2.2771968877        2.1137869229       18.7319609377
  H         3.0736589550        0.9364095262       19.8308124352
  C         2.9516501853        0.1480691395       17.7893436113
  H        13.7212017934        3.6572302314       23.2798752865
  H        14.1113683121        2.0433053882       23.9221046942
  C        15.6954768612        3.4192020611       23.5948199104
  C        10.9969690617        8.4986177687       13.8266481888
  S         3.3900511527        1.3050076271       37.6285302185
  C         4.2688293984       -1.6381842270       37.4694454302
  H         1.9913972316        0.3883218412       17.3151685166
  H         3.8122879543        0.1980886573       17.1492576060
  C         2.8067153925       -1.2459722562       18.3622297778
  H        15.4700983787        4.0684422443       24.4586646750
  H        16.0291822835        4.2018716710       22.9395130759
  C        16.7430689275        2.3349631981       23.8261906015
  H        10.6823792168        9.5103388374       13.8995497692
  C        11.4731648261        8.0556836101       12.6174222276
  H         3.3343424929       -1.1930481990       37.9159296265
  H         4.1902355167       -2.7065180193       37.4046288629
  C         5.5838004044       -1.3876080953       38.2430086254
  H         1.8793553945       -1.3202949502       18.8135557465
  H         3.5337254226       -1.4646161632       19.1464690792
  C         2.6915590374       -2.3778705301       17.2945923054
  H        17.0278721165        2.5515948882       24.8042003392
  H        16.2873339576        1.3779685541       23.7900227820
  C        18.0867455903        2.3888129387       23.0332400203
  S        11.9097641459        6.4171922620       12.1969277437
  C        11.6974547306        9.1320572057       11.6511336321
  H         5.4553344776       -0.5582111265       38.8719657329
  H         5.7835805809       -2.2239488413       38.8982885528
  H         6.5155067789       -1.3081281344       37.6771182710
  H         2.1751677148       -3.2474421161       17.6662758556
  H         3.7595606202       -2.4852155884       17.0086238657
  H         2.1268068758       -2.0557813669       16.4007200505
  H        18.9253291909        2.2504559930       23.6981340506
  H        18.3030030674        3.3462259092       22.5208494491
  H        18.1449268923        1.5987803552       22.3333895687
  C        12.2559737753        7.1883826202       10.6237719227
  N        12.1439181123        8.5416429034       10.5094205786
  O        11.2613913563       10.2778545254       11.7591640071
  S        12.5725575754        6.3706472364        9.0509870247
  C        12.3155740187        9.3131512893        9.2980350594
  H        12.5611848234       10.4056810584        9.4513530177
  H        12.9612067504        8.8535965854        8.5066467518
  C        10.9461378441        9.2701172517        8.6363930633
  H        10.7930332000        8.7366162217        7.7399330141
  H        10.2884340065        8.8033957925        9.2812517610
  H        10.5991990172       10.2488973529        8.3581252043
  H         5.0067736153        1.6863871512       12.6223893759
  C         4.2793487560        2.4641940319       12.8410903731
  H         4.9329691380        3.3168831091       12.8637333611
  C         3.2628772024        2.6479420131       11.6438627780
  C         3.6171812573        2.1094599120       14.2279750816
  C         3.9936181664        2.8306300268       10.2687256550
  H         2.7238277848        3.5293178948       12.0458026489
  H         2.5675768259        1.7936485604       11.5581810268
  H         2.9347227473        1.3000172965       14.2513658242
  H         3.0400479961        3.0419633394       14.5369217275
  H         4.3008090128        1.9115897497       15.0836204074
  C         4.6760699998        1.5129085290        9.7386567010
  H         3.3066705585        3.1184426735        9.5064338732
  H         4.6747285920        3.6254256056       10.4255779321
  C         5.5235177517        1.6203770460        8.4925573967
  H         3.8286160389        0.8402561549        9.5060324730
  H         5.2254045802        0.9790869196       10.5068035421
  C         6.6957768358        2.5698169698        8.6347758234
  H         4.8403371178        2.0735444856        7.7949725920
  H         5.7784317968        0.6335644498        8.0659345686
  C         7.8916636487        1.7853604638        9.1403150089
  H         6.8978567792        2.9745167972        7.6797336207
  H         6.4185021569        3.3172109200        9.3941451143
  C         9.1074374573        2.6329040204        9.3340366790
  H         8.1979023984        1.0902377271        8.3516604915
  H         7.7374468410        1.2370677373       10.0842532053
  C         8.7997491388        3.9923262491        9.9755256129
  C         9.5390444112        3.3388189736        8.0819831058
  C        10.2830998470        1.9091920744       10.1185538963
  C         8.9502671457        5.1158181037        9.2039839109
  C         8.3393882914        4.2990795415       11.2855434857
  C         9.4544839619        4.7084250691        7.9756688795
  C        10.0753542117        2.7135702320        6.9572395017
  H         9.9078289818        1.5180320961       11.0421047778
  H        10.5576365219        1.0306687864        9.5882340476
  C        11.4787010335        2.7748737200       10.4946579292
  S         8.6569160785        6.6155200039        9.9867959836
  C         8.2771810392        5.6827978820       11.4164479984
  H         8.0976313744        3.4822223150       11.9789668198
  C         9.8634681694        5.3135597730        6.8230334367
  H        10.2688014486        1.7030908186        7.0225329657
  C        10.3607612624        3.3601132054        5.7934964224
  H        11.2253322440        3.7072358979       10.9711292034
  H        12.0734977450        2.9271211680        9.5829769928
  C        12.4536728384        1.9884728685       11.3567259821
  C         7.8269173537        6.3425264002       12.7248499635
  C        10.3447971443        4.6961155372        5.6699100267
  H         9.8234018518        6.3754884470        6.7079828367
  C        10.7694748586        2.9676934657        4.5195076302
  H        13.4027486300        2.5049422990       11.2731292263
  H        12.4267302133        0.9675002376       11.0188771884
  C        12.2095604143        1.9092095923       12.8627987756
  C         7.7742611266        7.6924245067       12.9713097032
  C         7.3938321534        5.4317521278       13.9014142455
  C        10.8458242230        5.3843355171        4.4851084498
  C        11.1656932993        4.0747841327        3.7390038845
  S        10.9961222863        1.3968212129        3.8437697807
  H        11.7716538073        2.9073537290       13.1294483978
  H        11.5835081640        1.1391927200       13.2005343342
  C        13.4456824869        1.7226403257       13.7540690030
  N         7.9639299982        8.6898679503       12.0159045954
  C         7.4623332923        8.2192139949       14.2205608441
  C         7.0125228728        5.9178781479       15.1435394449
  H         7.5346123725        4.3796171923       13.7514432599
  C        12.1182791343        6.3156462105        4.7187583517
  C         9.6979474545        6.1360573291        3.7616531719
  C        11.5349964715        3.5899673318        2.4815592337
  C        11.5415011901        2.1790215781        2.4047792703
  H        14.0889452187        2.6193156059       14.0343467465
  H        14.1664926547        1.0990236653       13.2107948039
  C        13.2371196338        1.0287626715       15.1014413007
  S         7.7940908431       10.1373200559       12.7460706289
  N         7.4309470531        9.6171215325       14.1934844489
  C         7.1147541953        7.4095501138       15.3658548262
  H         6.5937795181        5.2282305256       15.8598806253
  H        11.9415809508        7.0569830043        5.4923114420
  H        12.3056817444        6.9272441621        3.8278622433
  C        13.4759396693        5.6431688564        5.0777544842
  H         9.4622338511        7.0462240903        4.2886311384
  H        10.1225258109        6.4631804785        2.7952124674
  C         8.4883042726        5.3650595793        3.4348845481
  H        11.6204396900        4.2884953376        1.6628137299
  C        11.7014885572        1.4385569244        1.0733211531
  H        12.2211821970        0.7212854475       15.2937218484
  H        13.8741858580        0.1445877359       15.1598067657
  C        13.5580561077        1.9329822311       16.3092700307
  C         6.7729120563        8.0553733190       16.5721463377
  H        13.3979277773        5.1123400334        6.0238704712
  H        13.7721551602        4.9209067508        4.3656491927
  C        14.6464322855        6.5518163390        5.4017803288
  H         8.0885642989        4.8497606246        4.3354101282
  H         8.7497639153        4.6351554790        2.7313283098
  C         7.4349536462        6.3922821201        2.9020670439
  C        11.7378522865        0.0354436362        0.9053952564
  C        11.9184112515        2.2156164275       -0.1213598704
  H        13.4291915892        2.9744339359       16.0011719940
  H        14.6306287629        1.8327389527       16.5609843895
  C        12.5924473126        1.6792120674       17.4164934817
  H         7.1506577347        9.0065145209       16.5228155960
  C         6.4239207139        7.5782448444       17.8370611653
  H        14.5187928134        7.0269443066        6.3628619938
  H        14.6505302711        7.2841188369        4.6065188134
  C        16.0429209010        5.8251565201        5.5588863253
  H         7.1951697814        6.9591852346        3.8169007765
  H         7.7973952313        7.1101078150        2.0970403133
  C         6.1089846192        5.6591600774        2.4191450807
  N        11.5927026032       -0.9009353224        1.9332211034
  C        12.0996021040       -0.5491261624       -0.2791196881
  C        12.2394850246        1.5988222536       -1.2943222861
  H        11.7344851098        3.2787767357       -0.1093510006
  H        11.5856670366        1.6854812591       17.0872704668
  H        12.5935438274        2.4610227322       18.1959733668
  H        12.7017461868        0.6922665828       17.7951787561
  S         6.0920508083        5.9786089715       18.2884411946
  C         6.4349207265        8.5702231232       18.9150652275
  H        16.3408297890        5.0806246501        4.8543618492
  H        16.8153103646        6.5256416226        5.4897350138
  C        16.1563290497        5.3262472119        7.0564834378
  H         5.6977258988        5.1968481149        3.3268028368
  H         6.4172258637        4.7990174623        1.8345412635
  C         5.0495119380        6.5676738560        1.8427284597
  S        11.5620057235       -2.3951457082        1.3145572330
  N        12.0331580219       -1.9318844458       -0.2013408413
  C        12.3569006980        0.1497272303       -1.4310063132
  H        12.4145380271        2.3237275433       -2.0387055918
  C         5.9676687148        6.6361496151       19.9810039971
  N         6.0455088592        7.9781175752       20.0770476727
  O         6.6347977054        9.7417517376       18.7732667481
  H        16.0037365122        6.0521832956        7.7194277163
  H        15.4096473301        4.6418931584        7.3694522995
  C        17.4725483616        4.6013209909        7.2621497520
  H         5.4512943749        7.0792447085        0.9408658758
  H         4.1692969277        6.0168065483        1.4034925741
  C         4.5501922360        7.6660683021        2.8102215321
  C        12.6314901435       -0.5626530250       -2.6804556448
  S         5.7066671165        5.5763983141       21.3295361192
  C         5.8509005753        8.7714565560       21.3210020421
  H        17.5587041342        4.0144178189        8.1957278571
  H        17.6846344821        3.8595363394        6.4548875595
  C        18.7071808633        5.5261280569        7.3695031479
  H         5.3029205142        8.3821895243        3.2568935129
  H         4.0827623615        7.3372763796        3.7825202781
  C         3.6117208726        8.5150326235        1.9981946003
  H        12.3403752074       -1.6405977093       -2.7564263245
  C        13.1734262176       -0.1836623026       -3.8922498783
  H         5.0520123803        8.2907317751       21.9208030817
  H         5.6744925352        9.8136466090       21.1465887625
  C         7.1782864826        8.8226008990       22.1510882830
  H        19.3618442616        5.1885194059        8.2212809739
  H        18.3854351605        6.5436149030        7.6469353822
  C        19.5612953673        5.4775204041        6.1017689088
  H         3.2466773083        7.9551367063        1.1251082302
  H         2.7511007201        8.7001144215        2.5836710821
  C         4.1646351025        9.8464788481        1.6759356524
  S        13.8842015232        1.4296117861       -4.1899100539
  C        13.2976571588       -1.0886781025       -5.0640284224
  H         7.8093745033        9.7208595799       22.2398208772
  H         7.8203532364        8.1130388965       21.7386044535
  H         7.0398760818        8.4789409664       23.2021621833
  H        20.5329412016        5.7418869383        6.4027491339
  H        19.5313458553        4.5889943957        5.4662464658
  H        19.2906139431        6.2928520894        5.5156243318
  H         5.2484598126        9.7611884250        1.3852606778
  H         3.6017431872       10.2878028418        0.8593251786
  H         4.0488796741       10.4999264806        2.5778966883
  C        14.2507286565        0.8577442549       -5.7968821726
  N        13.9401145436       -0.4242796316       -6.0635389263
  O        12.8176346226       -2.1915284750       -5.1092319383
  S        14.7889225207        1.8542918899       -7.1192091666
  C        14.0599707944       -1.0835767202       -7.3431859412
  H        14.1749219972       -2.1444228976       -7.1655593304
  H        14.9432313780       -0.7117949993       -7.8687838795
  C        12.8355139525       -1.0247211514       -8.2290753317
  H        12.4692485378        0.0037743028       -7.9834629059
  H        12.1482980802       -1.8132563441       -7.9752584749
  H        13.0364658067       -1.0297920107       -9.3360728076
