352
 i =    82200, time =    41100.000, E =        99.2778190021
  H        11.1634660211        6.7818666817       33.0251647984
  C        11.3792399814        5.7763769414       32.7605514272
  H        12.4644110295        5.7437856799       32.5167366345
  C        10.3993122922        5.4561874736       31.5962720819
  C        11.0046088696        4.8874678614       33.9323528373
  C        10.9738321528        5.7552448144       30.2654498780
  H        10.3059595354        4.3142627196       31.6089963899
  H         9.3719539776        5.8504420690       31.7428454589
  H        10.2455331596        5.3552805831       34.6188101157
  H        10.6897387014        3.9344685920       33.6532234919
  H        11.9222773084        4.6738755523       34.4858711730
  C        10.1957640856        5.1217344913       29.0917027433
  H        11.9942026712        5.3488148016       30.1814774192
  H        11.0158982751        6.9314284536       30.1037426924
  C        10.7579028988        5.5711243021       27.6981580793
  H        10.2611286953        4.0380288340       29.1261373808
  H         9.1602004406        5.3315175688       29.2012951023
  C         9.8383701225        5.1901738190       26.5408613580
  H        11.7661509407        5.1386469892       27.6234703249
  H        10.8637275563        6.6393481616       27.6409176834
  C         8.4773852425        5.9334824224       26.4988638146
  H        10.2703234080        5.2815739231       25.4583989438
  H         9.7518507737        4.0819018003       26.5194161556
  C         7.3276187187        5.2411726754       25.7517003620
  H         8.1454493123        6.2721059033       27.4835934375
  H         8.8093220599        6.8115569184       25.9115755454
  C         7.0299020497        3.8989378565       26.4394087910
  C         7.7658778448        4.6365907055       24.4963712542
  C         6.1840639861        6.1349799439       25.6057821739
  C         7.3455192120        2.8291297725       25.6287819875
  C         6.4910667854        3.4862992086       27.6655320844
  C         7.8679519558        3.2859766954       24.4366152806
  C         8.1497781870        5.2292002013       23.3352551642
  H         6.4446660830        6.9795842935       25.0127170567
  H         5.9213386586        6.4729024434       26.5149467194
  C         4.9913444513        5.3191991594       25.0691316013
  S         6.8999246299        1.3124096171       26.3558138682
  C         6.3124861454        2.1229102000       27.7910271421
  H         6.2122972380        4.2458770557       28.3940449843
  C         8.1721203168        2.6419947140       23.2794431176
  H         8.1226844355        6.2474849032       23.3868070599
  C         8.4181648691        4.5716189173       22.1579244434
  H         5.3083656176        4.9394178645       24.0944301302
  H         4.7363469225        4.5544383562       25.7704602708
  C         3.7046509172        6.1533414666       24.9986595540
  C         5.7299550040        1.4578675105       28.9986254582
  C         8.4863123915        3.2321545256       22.0791039551
  H         8.0738968502        1.5672207832       23.2891464018
  C         8.8703844745        4.9876044380       20.9399663971
  H         3.0128180522        5.6504049833       24.3194405403
  H         3.8991263553        7.1022069602       24.5752371324
  C         3.0150945254        6.3025946033       26.3418474501
  C         5.7474155885        0.0410982300       29.2061236414
  C         5.2018090374        2.2280936614       30.1327731424
  C         8.9166202631        2.5891547725       20.8423429114
  C         9.1282842816        3.8959414257       20.1122003218
  S         9.1591095843        6.4457787171       20.2498139653
  H         2.4105614510        7.1811306558       26.3600080786
  H         3.6812196303        6.5373014424       27.1752125871
  C         2.0875396990        5.1236152878       26.6451472412
  N         6.0723280526       -0.9057122416       28.2364989636
  C         5.4931822486       -0.5345361167       30.4049915458
  C         4.9371987851        1.6686957468       31.3768387329
  H         5.1250548978        3.3006189752       30.0996511465
  C         7.8991934761        1.7511191300       20.1498233729
  C        10.3174699173        1.8868826963       20.9911417884
  C         9.5242738639        4.3166208183       18.8554967959
  C         9.5952526269        5.6199879868       18.7351244749
  H         1.2558030396        5.0333762123       25.9734943707
  H         2.6043701866        4.1688470486       26.5685160478
  C         1.5882635013        5.1728495890       28.0416922552
  S         6.1156974548       -2.3970873705       28.9207203618
  N         5.6866871226       -1.9512709067       30.4595530552
  C         5.1373869413        0.2095026310       31.5637103841
  H         4.4712658801        2.2805503315       32.0152622821
  H         7.5755724131        0.7545085958       20.5906411805
  H         8.3997516048        1.5111106575       19.2103155843
  C         6.5920467310        2.4589176793       19.8964430336
  H        10.4185832549        1.1170981587       20.2988072566
  H        10.2507179015        1.5159823236       22.0237648709
  C        11.5837681759        2.6967737246       21.0272660762
  H         9.7407497392        3.6072129541       18.0984504521
  C         9.9370594302        6.3650638310       17.4522395584
  H         0.8182355918        4.4320364960       28.0051465214
  H         1.1764767209        6.0924506642       28.3876580196
  C         2.7265501056        4.9109331184       29.0639842983
  C         4.9328587347       -0.4763744136       32.7914326023
  H         6.4417506414        3.5332070211       20.2152653048
  H         5.7885480664        2.0758882399       20.5166039327
  C         5.9849829045        2.3023859689       18.4609820770
  H        11.6250098454        3.3334702900       21.9023100667
  H        11.7098299409        3.2957401895       20.0693887024
  C        12.7650327639        1.6103497967       21.1472419205
  C         9.9556859565        7.7484063461       17.3173565926
  C        10.3634773377        5.7281927227       16.2228487048
  H         3.2764477729        3.9434205206       29.0027179876
  H         3.5118001061        5.6620322685       29.0243259608
  C         2.2591033598        4.8956701271       30.5788875102
  H         5.2948121410       -1.5240925038       32.7600948259
  C         4.5359732339       -0.0370391079       34.0426738643
  H         6.4221815382        1.4399086608       17.9211976755
  H         6.2395764626        3.1616285644       17.7587743465
  C         4.4867925553        2.2598499236       18.5013752037
  H        12.4848283137        0.9358217621       21.9972502987
  H        12.8445839715        1.1122032549       20.1514323758
  C        14.0632147348        2.4080529880       21.3834232163
  N         9.5252120648        8.5913169199       18.3856838989
  C        10.2374781798        8.5184182767       16.2244812552
  C        10.6995382801        6.4584693442       15.1163231032
  H        10.4921009476        4.7089609336       16.1414724220
  H         1.3413076160        4.3047949451       30.6685617808
  H         2.9802941994        4.4266880455       31.2531940831
  H         2.0771371958        5.8724403548       30.9454802255
  S         4.2534155052        1.5472305185       34.5399712189
  C         4.6240012908       -1.1100807558       35.0749089149
  H         4.1720192339        2.7040622152       19.4429981056
  H         4.0545502133        2.8190689698       17.6907472891
  C         3.8016285957        0.8672351226       18.5774425798
  H        13.7441823163        3.4706555773       21.1416638707
  H        14.7984062688        2.1454583978       20.6066426809
  C        14.7144587580        2.1266044222       22.6902813490
  S         9.5551277863       10.1873037912       17.9223603020
  N        10.1687396027        9.9631149187       16.4916185439
  C        10.7024536829        7.9262861760       15.0741624905
  H        10.6805202273        5.8913392913       14.2220412856
  C         4.0990813369        0.7878023710       36.2047285461
  N         4.2400292420       -0.5965677382       36.2101738681
  O         4.8180037576       -2.2909980209       34.9202001401
  H         3.9972536552        0.6001295923       19.5918127848
  H         4.3852647134        0.1296779840       18.0848288813
  C         2.3449216507        0.7761526758       18.3513291607
  H        13.8507662066        1.7776996982       23.3459133788
  H        15.5273507625        1.3699885468       22.6740146877
  C        15.3494828565        3.3538027116       23.3737505233
  C        11.1428606274        8.7910412785       13.9590382899
  S         3.9189314464        1.5468204082       37.8020342221
  C         4.2399047526       -1.4471289100       37.4014827125
  H         1.7326230480        1.5582513244       18.7357721416
  H         2.2368718054        0.9604825254       17.2634182521
  C         1.8379305968       -0.6408527337       18.9446585922
  H        15.4026978804        3.2616357401       24.4247335206
  H        14.8111857568        4.2367652345       23.1815496284
  C        16.7736302279        3.4958712717       22.8116060255
  H        11.0227548986        9.8817874877       14.0384442101
  C        11.6659969165        8.4008630102       12.7248279085
  H         3.4761662385       -1.1757669517       38.1247647333
  H         4.0086923173       -2.4681819519       37.1894001180
  C         5.5839334429       -1.4190041569       38.2087586949
  H         0.7276651740       -0.6319124455       19.0518652500
  H         2.2872657484       -0.8252186956       19.9086522137
  C         2.1346831997       -1.8001336966       18.0113395368
  H        16.6220641460        3.5406944712       21.7521836599
  H        17.1089490498        4.3898277703       23.2475835395
  C        17.7777195422        2.3630733436       23.1222999851
  S        12.1218633616        6.7847089586       12.1901319228
  C        11.8478516259        9.4624574384       11.7008233681
  H         5.7308963396       -2.3731564558       38.7269799954
  H         6.4549879640       -1.2107383594       37.5962574201
  H         5.5237996758       -0.5267135156       38.8845712012
  H         1.7605582894       -1.6079709935       16.9650571876
  H         1.5427021565       -2.6989967581       18.3678995672
  H         3.2211151290       -2.0235550043       17.7852746265
  H        18.6790167641        2.6893086339       22.7213626424
  H        17.6708792631        1.4029240193       22.7014741084
  H        17.8890542471        2.1992927785       24.2153892581
  C        12.3912404798        7.5570664403       10.6199267763
  N        12.3190937619        8.8786064374       10.5746156528
  O        11.5301238303       10.6514049413       11.9089631532
  S        12.9868255041        6.6978505017        9.1991246177
  C        12.5106929350        9.6792139130        9.3775164337
  H        12.8363422528       10.6592435591        9.5857801443
  H        13.3078710814        9.2999972945        8.7613469182
  C        11.2149314417        9.8045991837        8.6299282704
  H        10.5282532730       10.4441707947        9.1227879343
  H        11.3488845125       10.3305583857        7.6204756300
  H        10.7784142657        8.8257733754        8.4949611142
  H         1.9092657809        1.0438838848       12.4280372640
  C         2.7339829560        1.7323190932       12.5851812334
  H         3.6194416261        1.1687363426       12.6413072733
  C         2.8906848914        2.6967141985       11.4354393764
  C         2.5948553519        2.3326220844       14.0010947454
  C         4.2484998560        2.8204410627       10.7372634591
  H         2.6965234967        3.6053228775       11.8839731249
  H         2.2391551284        2.4044458185       10.6436307461
  H         2.3726936642        1.5274712108       14.7207587788
  H         1.8073562108        3.0082314311       14.1307022053
  H         3.5212232613        2.8113769774       14.1969462189
  C         4.7719539151        1.4826858939       10.0838606509
  H         4.1613655670        3.6301924665       10.0162323278
  H         4.9463252731        3.1482861939       11.5263311868
  C         5.5520122066        1.7363420650        8.7704099806
  H         3.8817991579        0.8247065612        9.8804833768
  H         5.3218164515        1.0005150830       10.8168253833
  C         6.6938319971        2.6967969033        8.8464949219
  H         4.7911246430        2.0295153810        8.0636992773
  H         5.9267791862        0.7923495948        8.3625571812
  C         8.0121576204        2.0590913981        9.3155826759
  H         6.8607322663        3.1468689865        7.8294342935
  H         6.4675627565        3.5220934245        9.4690708811
  C         9.2008558640        3.0265391515        9.4992638032
  H         8.3473592720        1.3885717313        8.5076283081
  H         7.8330209486        1.5271092253       10.1982010190
  C         8.8444886287        4.3195898494       10.2095133418
  C         9.5820204865        3.7872691488        8.2700051081
  C        10.4237763169        2.4062712245       10.1819614587
  C         8.9983751460        5.4709719871        9.4550243488
  C         8.1270425145        4.6317963951       11.4309386918
  C         9.5311057714        5.1457133222        8.2103423159
  C        10.1069555614        3.1821693121        7.1348077164
  H        10.0744768377        1.7681302165       10.9394665192
  H        10.9061067471        1.7625063993        9.4807539947
  C        11.4195773461        3.4913202981       10.6582180537
  S         8.5992260578        6.9694056477       10.2303743817
  C         7.9917201818        6.0111834854       11.5716095557
  H         7.9403116634        3.7818216273       12.0857342535
  C         9.9477236691        5.8457460140        7.1294066646
  H        10.1476311582        2.1451132948        7.2143897125
  C        10.3357056044        3.8511389170        5.9728432747
  H        11.0253820379        4.2401060537       11.2791844301
  H        11.7454353870        4.1758695905        9.7301884612
  C        12.6472934160        2.8734290876       11.3479643043
  C         7.5709534962        6.6933842976       12.8253289043
  C        10.2997997182        5.1914842290        5.8990216360
  H         9.9724711442        6.9068226844        7.3449942884
  C        10.7110924214        3.4321171305        4.6853550791
  H        13.3218721377        3.5963135693       11.6733254637
  H        13.2112689490        2.2260930398       10.7044467947
  C        12.4062934824        1.9642211722       12.6398077099
  C         7.7016562227        8.0883324695       13.1771251132
  C         6.9997782483        5.8009567651       13.8679645796
  C        10.6335741696        5.8459061916        4.5629743559
  C        10.9216108638        4.5037753740        3.8705014731
  S        11.0073083465        1.8978040605        3.8733632565
  H        11.7548889150        1.1554392914       12.6540996635
  H        13.3595008625        1.5480014836       12.8548386870
  C        11.9999673970        2.7994905516       13.8154782272
  N         8.0617465091        9.0975383737       12.2930734532
  C         7.4708252711        8.5956549814       14.4399258044
  C         6.6173199415        6.3340134146       15.1247329267
  H         7.0207297345        4.7607028843       13.8385959410
  C        11.9127468211        6.7408390057        4.7112135701
  C         9.4700019690        6.5975256160        3.8030678304
  C        11.4877229852        4.0765940064        2.5870481646
  C        11.4838598638        2.7085869418        2.4245341339
  H        11.2518625274        3.5467282466       13.5685922419
  H        12.9068810519        3.4333544137       14.0584768078
  C        11.5790347716        1.9429389264       14.9988476839
  S         8.0924238052       10.5062775557       13.0683939314
  N         7.7620466865        9.9971912215       14.5426921478
  C         6.9184560104        7.7733341515       15.4338058120
  H         6.0667225107        5.7114334572       15.8266785134
  H        11.7154329526        7.5375194884        5.4033156679
  H        12.3332863818        7.1199930438        3.7740741602
  C        13.1043779530        5.8389274997        5.1451350897
  H         8.9471597127        7.1345153021        4.5952037264
  H         9.8885961523        7.1923904133        3.0160298863
  C         8.4861944618        5.5957092888        3.2276257093
  H        11.7667038496        4.8554505510        1.8950517158
  C        11.9296595895        1.9244648255        1.2295539262
  H        10.6482628330        2.3277999740       15.4646056161
  H        11.3356542931        0.9111217615       14.6210158243
  C        12.6365233251        1.7038787967       15.9699361357
  C         6.6862308838        8.4328880726       16.6944674262
  H        12.7852976225        5.1846145175        5.8798964693
  H        13.5050049773        5.2171254707        4.3060150050
  C        14.1874790744        6.8168211140        5.7002925889
  H         8.1805536494        4.8864454351        3.9642094365
  H         8.8939138166        5.1845020725        2.3477504665
  C         7.3513315766        6.4616526577        2.6566170001
  C        11.8414379099        0.5100900629        1.0126544862
  C        12.2856815229        2.6991229336       -0.0155310827
  H        13.3911726916        2.3787402882       15.6399577283
  H        13.0064783212        0.6674615535       16.0562190798
  C        12.3692685125        2.1742040183       17.4170118150
  H         6.8027097705        9.5414177171       16.7631636198
  C         6.3982795594        7.8221605101       17.9315353546
  H        13.8032395872        7.6230453272        6.3250371097
  H        14.6479908913        7.3068131298        4.8233487539
  C        15.2879597902        6.0959775310        6.4846513865
  H         7.0312603407        7.0371730893        3.5707475726
  H         7.6305395744        7.2283129176        1.9477437262
  C         6.1837175879        5.7112637239        2.0382273025
  N        11.3676586663       -0.4150427914        1.9638543581
  C        12.0722217826       -0.1282631297       -0.2273478337
  C        12.5644024068        2.0432522021       -1.2169660214
  H        12.5576354602        3.7153147197        0.1491262162
  H        12.0118121541        3.1960449137       17.5800232444
  H        13.2441934536        2.0019532828       18.0543007908
  H        11.7006747195        1.5246473945       17.8743692679
  S         6.1501305193        6.2281979792       18.3949110966
  C         6.2353563859        8.8062273056       19.0355885946
  H        15.4981764697        6.5973498991        7.4313046775
  H        14.9295097743        5.1343625674        6.7988629594
  C        16.4891532263        5.9353457006        5.5999920012
  H         6.3594995819        4.6917435216        2.3700354328
  H         6.2403958510        5.7780400023        0.9735055856
  C         4.8822477247        6.1591985819        2.5850219428
  S        11.4491843903       -1.8943824879        1.2600540530
  N        11.8716661114       -1.5005775133       -0.1977988759
  C        12.5083121503        0.5420660257       -1.4077843782
  H        12.9158914122        2.6841823086       -2.0123585816
  C         5.7663378940        6.8305739495       20.0034710202
  N         5.9099369516        8.1394580791       20.1457677964
  O         6.2979775734       10.0668564052       18.9575576294
  H        16.1757296662        5.5747480691        4.5872720197
  H        16.8854393957        6.9342395002        5.3047779804
  C        17.6351647117        5.0641792074        6.1178794246
  H         4.0060259783        5.5661931396        2.2267478736
  H         5.0700472503        5.9451867862        3.6293379330
  C         4.4588687817        7.6423337533        2.2689128440
  C        12.7744919173       -0.1965995480       -2.5745051286
  S         5.3854961579        5.7872484727       21.4695050932
  C         5.5806112552        8.8447146253       21.3781523243
  H        17.2450256556        4.2730470439        6.7227132139
  H        18.1985678396        4.6691288095        5.2944188760
  C        18.5922018488        5.7463780594        7.0642520252
  H         4.7476440620        8.2419200835        3.0903005420
  H         3.4133675657        7.7620677848        2.2923991963
  C         4.9758381435        8.2161232892        1.0068610448
  H        12.5831978874       -1.2278541886       -2.4659866387
  C        13.3259941194        0.1701719211       -3.7498335838
  H         4.9788426991        8.1815307619       22.0021744766
  H         5.1055678132        9.8656718576       21.1874316942
  C         6.8343127887        9.1151660429       22.2832290767
  H        18.5589574370        5.2397990696        8.0577563135
  H        18.3996942067        6.8025605108        7.2050338481
  C        20.0030806513        5.6306752868        6.6699630613
  H         6.0212311965        8.4339853280        0.9810943531
  H         4.7197825456        7.5919982609        0.2082738350
  C         4.3956147502        9.6022158178        0.8455399126
  S        13.8813900086        1.7058129640       -4.1186954964
  C        13.5293415623       -0.8503923992       -4.8097058768
  H         6.5026315351        9.6926004990       23.1209651416
  H         7.6893621340        9.5035305756       21.8106995627
  H         7.1008297355        8.0982324933       22.6171289418
  H        20.5660462126        5.7057831500        7.5231849471
  H        20.3386454072        4.7322555025        6.1669407330
  H        20.2900291469        6.4817936650        6.0971020436
  H         4.5404570005       10.3099096835        1.7299228699
  H         4.6914456513       10.1063893255       -0.0428754289
  H         3.3266824383        9.3913267156        0.6760857201
  C        14.3325014969        1.0497599429       -5.7146435162
  N        14.0976439136       -0.2717087828       -5.9168908892
  O        13.0716548102       -2.0214624757       -4.7124272314
  S        14.7400527673        2.0385076201       -7.1338451303
  C        14.2338725071       -0.9578525813       -7.1672370197
  H        14.4009434724       -2.0317077612       -7.0829725546
  H        15.1179563337       -0.5177102959       -7.6394401621
  C        12.9406411162       -0.7592047095       -7.9318204924
  H        12.5352522783        0.2483591538       -7.9520404794
  H        12.2136579601       -1.4525378993       -7.5625394125
  H        13.0731636338       -0.9767644612       -8.9783421544
