352
 i =   133500, time =    66750.000, E =        99.3253601713
  H         9.4440169300        5.2113361834       31.8761282540
  C        10.3140467072        5.8220316020       32.0753298232
  H         9.8320948206        6.7457585895       32.1132070242
  C        11.2236467665        5.7618732505       30.8197517076
  C        11.1175235104        5.4473104203       33.3361803659
  C        10.4708006167        5.9376801727       29.5208485155
  H        12.0638512693        6.3438424160       30.8666511282
  H        11.6455648150        4.7393301660       30.8136472290
  H        10.3968930804        5.2042671950       34.0959571651
  H        11.9055821592        4.6482665465       33.2646041843
  H        11.6894256015        6.2967053801       33.7769621316
  C        11.1265051557        4.9791032339       28.5468285426
  H        10.5200818376        7.0191996165       29.2563535400
  H         9.3833816762        5.8016688800       29.4418406807
  C        10.9617542980        5.5168411729       27.1208041588
  H        12.1701420609        4.8006877887       28.7081042737
  H        10.6196347426        3.9989394433       28.6307256453
  C         9.8355933060        4.9078937872       26.2278365045
  H        11.9515678364        5.5292320174       26.6556595517
  H        10.7256243566        6.6264374090       27.1388040038
  C         8.6128119220        5.8754477715       26.1539301366
  H        10.3083624355        4.7810028623       25.2808874328
  H         9.6683882641        3.8828609119       26.6169875947
  C         7.5242034084        5.1657862354       25.4673750775
  H         8.2985101180        6.1994789553       27.1412849268
  H         8.9045566736        6.6738237007       25.5889899497
  C         7.2309451945        3.8291201490       26.1653348997
  C         7.8985015616        4.4185732024       24.2544870308
  C         6.3386855183        6.1968542091       25.2159265246
  C         7.2679437350        2.7400674653       25.3503997756
  C         6.7997378306        3.5235729236       27.4546154406
  C         7.7817007386        3.0633115721       24.1402036344
  C         8.3601259552        5.0129574857       23.1068529376
  H         6.6916694578        7.0188329928       24.7195885583
  H         5.8227392767        6.4925708291       26.1920484339
  C         5.1189220321        5.5906343115       24.5249179735
  S         6.8224554817        1.2413340796       26.1583068472
  C         6.5095538048        2.2139013022       27.6035132108
  H         6.7796748444        4.3383483884       28.1299765382
  C         8.3601674285        2.4402897338       23.0575659513
  H         8.4171496462        6.0882695667       23.2274907969
  C         8.6754439685        4.3637322055       21.9573681863
  H         5.4745145784        5.4841946868       23.5043052355
  H         4.9094938904        4.5452171869       24.8904431807
  C         3.8989894107        6.5272420772       24.5551367234
  C         6.0310998912        1.6041932760       28.9038561362
  C         8.6267960607        3.0111887728       21.8631217762
  H         8.3336946563        1.3647706624       23.0954194682
  C         9.0748665285        4.7414683342       20.6848671066
  H         3.1150740131        6.0868466366       23.9267042816
  H         4.2478663731        7.5543313563       24.2039623897
  C         3.2317553057        6.8512973073       25.9686461838
  C         5.9105076905        0.2366309050       29.1270987776
  C         5.7109331426        2.4934389428       30.0608966341
  C         8.9872978451        2.3617711536       20.6003926049
  C         9.2825198364        3.6529255074       19.8709274899
  S         9.1640558184        6.2188578750       19.8743474114
  H         2.2712016738        7.2968947254       25.9992149982
  H         3.7974520117        7.5048891629       26.5588083768
  C         2.9444204450        5.5719275676       26.7218478661
  N         6.0796144227       -0.7234023371       28.1853583043
  C         5.6450436526       -0.3183618832       30.3809100552
  C         5.2911754988        1.9076202882       31.2558341681
  H         5.7603446978        3.5940172783       30.1009907276
  C         7.7917568799        1.6096809139       20.0094388723
  C        10.2556948498        1.5946036937       20.7432872981
  C         9.6391651722        4.0644657695       18.5410268303
  C         9.6611279466        5.3826233118       18.4135450875
  H         2.9899348078        4.6564115896       26.1066788049
  H         3.7615221995        5.4835933498       27.3827674237
  C         1.6127505216        5.6677123064       27.5666572601
  S         6.3189300004       -2.1209133391       28.9449050128
  N         5.8123574221       -1.7043445350       30.4163433969
  C         5.3300764374        0.4739446626       31.4868305195
  H         5.0002169885        2.5819230026       32.0617294231
  H         7.3414342190        1.0267413527       20.8050923388
  H         8.1943704226        0.9674809549       19.1971122082
  C         6.6171837236        2.5136153099       19.4781850200
  H        10.7293490085        1.2609824527       19.8294198123
  H        10.2020168558        0.6548029195       21.2684844241
  C        11.3981884021        2.4047748769       21.3995297960
  H         9.8700239039        3.2734365832       17.8250317648
  C         9.8860836439        6.1238062443       17.0855858601
  H         1.2494430070        4.6578773537       27.8549949339
  H         0.7700010288        6.0634520716       27.0203900195
  C         1.8890505218        6.3492193331       28.9018871983
  C         5.0147141331       -0.1935116493       32.7312470562
  H         6.9290040486        3.3726198254       18.8578861406
  H         6.3347871525        3.0247669285       20.4167986623
  C         5.4814935451        1.7200901538       18.9903809003
  H        11.0188696426        2.4411235964       22.4678454231
  H        11.4405628078        3.4574410096       21.1001466389
  C        12.7626841259        1.7041263702       21.4497562548
  C         9.9598996682        7.4970927255       17.0012569925
  C        10.1191289034        5.3386020022       15.8559954208
  H         2.7045150065        7.1452551732       28.7637373644
  H         0.9467482905        6.7627948940       29.2762736272
  C         2.4856790756        5.3558677316       29.8841087561
  H         5.1569206751       -1.2470273063       32.8013049584
  C         4.7962012366        0.2308114902       34.0240329567
  H         4.7922171846        1.3904418319       19.7722781671
  H         5.8930352402        0.7943537959       18.5877837853
  C         4.8077697881        2.4020566115       17.8252460064
  H        12.8713749344        1.2289140765       22.4383834410
  H        13.0034950975        0.9137284933       20.7623592064
  C        13.9706983714        2.7034345025       21.4060757228
  N         9.6509821426        8.4025091720       18.0409654362
  C        10.4096791274        8.1601071077       15.8374301669
  C        10.5896924954        5.9293836027       14.7069069862
  H        10.0486115173        4.2912550941       15.9524758750
  H         2.9721460456        5.8492102821       30.6910610271
  H         1.6746368646        4.8017740359       30.3027586193
  H         3.0167746771        4.5662017136       29.4144120395
  S         4.6891213990        1.8573946241       34.4723854886
  C         4.7237282294       -0.8038744293       35.1079866083
  H         4.6911940069        3.4697839750       18.0246436572
  H         5.5539426606        2.4199855163       17.0407809598
  C         3.4233498974        1.8793656862       17.5091064897
  H        13.8490859501        3.5370322895       22.1101618411
  H        13.9194804537        3.0710695433       20.3940645505
  C        15.1816624825        1.8518589203       21.6012529663
  S         9.8216442378        9.9129342829       17.4335680980
  N        10.4721240827        9.5529064146       15.9835006101
  C        10.7624514691        7.4181015859       14.6253409349
  H        10.9130876678        5.3284335726       13.8477085639
  C         4.4265111826        1.2136384123       36.1186666419
  N         4.4160376993       -0.1445539948       36.2170318466
  O         4.8096427790       -2.0221939586       34.9582842072
  H         2.9230211142        2.3718214037       16.6439953019
  H         2.7592352467        2.1278565102       18.3266434513
  C         3.4229959232        0.3793573009       17.0517661257
  H        15.1680281899        1.3454837164       22.6137626254
  H        15.2652311685        1.0102629988       20.9446839953
  C        16.5173876476        2.6480633659       21.6725752184
  C        11.0236761561        8.1443042826       13.4535022637
  S         4.1703274084        2.1726792286       37.5779810761
  C         4.3850126598       -0.9504292876       37.4818694346
  H         3.2521033877        0.3253999185       15.9835645173
  H         4.3793049586       -0.1345182328       17.2396081289
  C         2.3167292684       -0.3891706482       17.8466250341
  H        16.4905853804        3.4776520344       22.3599242329
  H        16.7659099429        3.0605258532       20.6534353514
  C        17.7162927916        1.7743280006       22.2224439938
  H        10.6824150109        9.1805995936       13.5171266939
  C        11.6396802185        7.8300925159       12.3004313433
  H         3.6624547074       -0.5285950413       38.1990117202
  H         4.0065899164       -1.9725585697       37.2647209620
  C         5.8070197752       -0.9509458448       38.0686258062
  H         1.4495595754        0.2205278448       17.7658424702
  H         2.6209752635       -0.4876710562       18.8573348209
  C         1.9183880258       -1.6356206313       17.0686258104
  H        17.7509728294        0.7486293173       21.8674350640
  H        18.6347463345        2.2099638352       21.8592723248
  C        17.7484257646        1.6657167727       23.7428937151
  S        12.1729372145        6.3023991142       11.7403392668
  C        11.6919342525        8.8853102532       11.2738554696
  H         5.7207959089       -0.4748847127       39.0581253486
  H         6.2032300113       -1.9778982510       38.1885738252
  H         6.5827080955       -0.4482531786       37.5194947019
  H         0.8677514838       -1.8645512078       17.3329133350
  H         2.4860800137       -2.5680574141       17.4842436784
  H         2.0663972375       -1.5223899844       15.9732334627
  H        16.9344571760        1.0285981676       24.1596891349
  H        17.5342639078        2.6416848725       24.2169586354
  H        18.7254929291        1.3395956681       24.0338554756
  C        12.3468031111        7.0871004376       10.1618612958
  N        12.0945964866        8.4261379158       10.0857756727
  O        11.3135626290       10.0030582482       11.4684962867
  S        12.6437236797        6.2630730993        8.6359721993
  C        12.2029138610        9.2762643298        8.9334440545
  H        12.4779203615       10.2641833533        9.2660363831
  H        13.1416470805        8.9649686744        8.3512760371
  C        10.9951246552        9.1617053147        7.9816044256
  H        10.0577777117        9.1287011798        8.5164065473
  H        10.8841768075        9.8790576800        7.1290843338
  H        10.9833099957        8.2160791211        7.4001410588
  H         3.3545922615        1.2571181482       12.7459454993
  C         3.9469418284        2.2227591766       12.5873222556
  H         4.9791214333        1.9138160912       12.4157897814
  C         3.3018783020        3.0262945208       11.4587175407
  C         4.0525469964        3.0527284482       13.8121092987
  C         4.2861012267        3.1138794524       10.3630480326
  H         3.0892126980        4.0585614296       11.6620770505
  H         2.3467440683        2.5772001989       11.1209476190
  H         4.6980764489        3.8813082855       13.6747215191
  H         4.6680373641        2.4076645417       14.4730044445
  H         3.1780881891        3.2767793984       14.2815857204
  C         4.5233131641        1.6640710325        9.6297026469
  H         3.9184173451        3.7100686087        9.5972093665
  H         5.2447547779        3.5139898532       10.7382171368
  C         5.1027725835        1.7931795766        8.1505925305
  H         3.6533738037        1.0370735839        9.5550779503
  H         5.1947663194        1.0190903077       10.2013039268
  C         6.4793655078        2.5893443735        8.0981392095
  H         4.3305055052        2.2922754264        7.6255468173
  H         5.0863495407        0.8475025033        7.5879116573
  C         7.7101292452        1.8482932718        8.6240276709
  H         6.7426043483        2.8353469143        7.1169953864
  H         6.4041437063        3.5374558142        8.5023213876
  C         8.9393303620        2.7131935129        8.9143495328
  H         8.0267565253        1.0565702725        7.9151129605
  H         7.4258631044        1.2400808052        9.4949519716
  C         8.6240160589        4.0419532262        9.5781911594
  C         9.4950111472        3.4307790470        7.7418973305
  C        10.0755419819        2.0054464980        9.7924907208
  C         8.8360273898        5.1328363510        8.7343465127
  C         8.0270920611        4.4323632514       10.7789185253
  C         9.4037352597        4.7266002213        7.5332805129
  C         9.9689946461        2.7404485122        6.6395168396
  H         9.5662523814        1.6003312993       10.6686113422
  H        10.4381171652        1.1211805618        9.2875803267
  C        11.1727580661        2.9729194701       10.3414749568
  S         8.3335985790        6.6575501061        9.2760593146
  C         7.9124515273        5.8219325300       10.7708272830
  H         7.8372170348        3.6552156187       11.5212055654
  C         9.8240822151        5.2999110086        6.3928574628
  H         9.9731455307        1.6439940690        6.7867799786
  C        10.3936710757        3.2661965485        5.4540728232
  H        10.7528273906        3.7112905527       10.9823989130
  H        11.5602898361        3.5604968344        9.4966972718
  C        12.2333449861        2.3398566776       11.1410372926
  C         7.5512841111        6.5322618813       12.0331375132
  C        10.3125134954        4.5953803859        5.2930357247
  H         9.8648577123        6.3870286615        6.4120214488
  C        10.8181109852        2.8317196991        4.1900858890
  H        13.1476338725        2.9644992482       11.2994221602
  H        12.5174410892        1.4180169623       10.6132864231
  C        11.6954284045        1.7493001461       12.4972955593
  C         7.8083170641        7.8987337965       12.3481957595
  C         7.0637707651        5.7677958408       13.1849825620
  C        10.8707291249        5.2481272708        4.0982691095
  C        11.0868615105        3.9040717588        3.3715297145
  S        11.1313532141        1.2476405195        3.5725219571
  H        10.9315020455        2.4265104977       12.8662711392
  H        11.1285619301        0.8406175440       12.2929098588
  C        12.8740326542        1.4844018746       13.4567724887
  N         8.2753270346        8.7615158155       11.4224566638
  C         7.4794415139        8.5495078208       13.5415057701
  C         6.8103707024        6.3609889004       14.3966498535
  H         7.1633479646        4.7273332130       13.1446695234
  C        12.0498607391        6.1401946652        4.4425146292
  C         9.7269826348        6.0702083664        3.3668074856
  C        11.5705442330        3.4435587918        2.0954127419
  C        11.5327890177        2.0546750628        2.0733550236
  H        13.7579777530        1.9096572019       13.0440089130
  H        12.9959386209        0.3991080676       13.6522344345
  C        12.7262657365        2.3374037812       14.7497611018
  S         8.2621102778       10.3082866990       12.0089449210
  N         7.7854713546        9.8967975204       13.5303284659
  C         6.9983079583        7.8266036165       14.6899461549
  H         6.5449301197        5.7268494113       15.2407387801
  H        11.7337993805        6.8219230439        5.2135948429
  H        12.2345874027        6.7937320971        3.6390137230
  C        13.3000847996        5.3198578416        4.7876149819
  H         9.4041689648        6.9513889914        3.9985133157
  H        10.1917205895        6.5960176125        2.5290646349
  C         8.6443892820        5.2151638945        2.8061151556
  H        11.8575366843        4.1792236764        1.3487911251
  C        11.7633248593        1.1931690359        0.8389052637
  H        13.3923023866        3.1523750426       14.7463787402
  H        11.6946891227        2.6648228018       14.7588003713
  C        13.0550792435        1.6094251130       16.0737134958
  C         6.8774640188        8.3908125419       15.9953846678
  H        13.0079663224        4.5213899380        5.5469781396
  H        13.5969900657        4.8340096899        3.8700743171
  C        14.5201275640        6.1966544508        5.2638760706
  H         7.9974739155        4.8050232483        3.6176665277
  H         8.8622859638        4.3921854100        2.1231727945
  C         7.5779906372        6.1878138027        2.1910787460
  C        11.7675709658       -0.2191572841        0.7203479512
  C        12.0830019472        1.8797806283       -0.4397679781
  H        13.8870920796        1.0367645898       15.9845264604
  H        12.2799057626        0.9163479628       16.2652482162
  C        13.1448586151        2.5975827107       17.2583640867
  H         7.0280975343        9.4212619029       16.0545816050
  C         6.5812197891        7.8994293960       17.2603633554
  H        14.1920088917        6.9332706922        5.9888544969
  H        14.9984128913        6.7308583042        4.4492065512
  C        15.5551773493        5.2650092602        5.9453901175
  H         7.3257233998        6.9416124099        2.8532773896
  H         7.9046830871        6.7145768662        1.2653636779
  C         6.3098588177        5.3958210909        1.6856680081
  N        11.4716383796       -1.1295758489        1.7422622330
  C        12.1168195349       -0.8947674601       -0.4402124697
  C        12.3607466790        1.2362584984       -1.5976913762
  H        11.9106366632        2.8867652634       -0.5243995323
  H        12.1114212631        2.9468304642       17.2873569162
  H        14.0099777469        3.3247575759       17.0017619440
  H        13.2860963579        2.1763911830       18.2615664455
  S         6.0856030584        6.2574731165       17.6023346044
  C         6.2804098908        8.8821350599       18.3175670795
  H        15.1081755286        4.7069572255        6.8710891245
  H        15.8554431886        4.3915175345        5.3508809860
  C        16.8146829388        6.0027909895        6.4718446705
  H         5.7943066432        4.8118457555        2.4905392478
  H         6.7754401085        4.5850632202        1.0804693990
  C         5.2992312768        6.2335459619        0.9099451788
  S        11.5431057481       -2.6941949705        1.1458973356
  N        12.1044525609       -2.3469143223       -0.2943689015
  C        12.4166879943       -0.2658154371       -1.6917994457
  H        12.4656597213        1.9420734482       -2.3838943377
  C         5.9131704059        6.8493967337       19.2451260600
  N         5.9879989933        8.1977268795       19.4770523325
  O         6.2768014662       10.1086419409       18.1524243390
  H        17.0645707090        6.8881344513        5.8910515327
  H        16.5205465374        6.3958561625        7.4327105162
  C        17.9902023878        5.0881958490        6.6733875348
  H         5.8239909960        6.8059692173        0.1981738887
  H         4.5063352022        5.6138735270        0.4389304846
  C         4.4858176820        7.2370787346        1.8291953325
  C        12.7878868417       -1.1339791701       -2.7944220805
  S         5.4293186271        5.8238847965       20.6874006996
  C         5.9773161251        8.8339245074       20.8304905162
  H        17.7706402731        4.4042417872        7.4560616882
  H        18.0941961931        4.6438603177        5.7196218027
  C        19.2075095324        5.8707319266        7.2161594731
  H         4.8792811770        7.1963090140        2.8522883065
  H         3.4877109332        6.8300176561        1.8736064770
  C         4.3893472418        8.6787529959        1.3295006398
  H        12.5046362861       -2.1736102450       -2.6278556217
  C        13.2800556350       -0.7741072693       -4.0001078882
  H         5.1396678102        8.5070584248       21.4545437899
  H         5.8698250327        9.9158204826       20.7133489199
  C         7.3690094914        8.6578037148       21.5325789516
  H        19.3469893377        5.5198536183        8.2154152938
  H        18.8849684454        6.8698357541        7.2947594956
  C        20.3866397095        5.6898200205        6.2334942877
  H         5.4089764159        8.8561254538        0.9680465291
  H         3.7312599629        8.6933964144        0.5045260259
  C         3.9436749993        9.6620285799        2.4201547998
  S        13.7921813374        0.9002166718       -4.4247700424
  C        13.3249626653       -1.7749383665       -5.0500174080
  H         7.4970166822        7.6653727765       21.8977649678
  H         7.4792957353        9.3424296000       22.3310839038
  H         8.2108327003        8.8736777234       20.8349179958
  H        20.8476190795        4.8434399873        6.5859232634
  H        20.1651447596        5.6629924531        5.2323351557
  H        21.1006266874        6.4501579611        6.4273722941
  H         3.1897786049        9.1021232555        3.0696366278
  H         4.8088034140       10.0153694127        3.0026909868
  H         3.5090961324       10.5922570783        1.9823355271
  C        14.0001958034        0.2521587821       -6.0152083477
  N        13.8549095227       -1.1302095624       -6.1249283792
  O        12.8807530000       -2.8953615822       -4.9520857960
  S        14.6416150953        1.0666718944       -7.5266241871
  C        13.9304216305       -1.8875229509       -7.3198246602
  H        14.0547145346       -2.9334067190       -6.9708289334
  H        14.7027231710       -1.6371879824       -7.9669458063
  C        12.6704216451       -2.0447373297       -8.1628002275
  H        12.9264005071       -2.7157630975       -8.9313488068
  H        12.4778250672       -1.0970622511       -8.6258780939
  H        11.8248791141       -2.4557129414       -7.6236315091
