352
 i =    54400, time =    27200.000, E =       100.4703586876
  H         9.1287681339        5.1018824352       31.4612220352
  C         9.9749867991        5.5765037876       31.9449441618
  H         9.5038823862        6.3629340217       32.5723111343
  C        10.9057848602        6.3799823579       31.0297091676
  C        10.6450590466        4.6351843464       32.9259960984
  C        11.3317178698        5.5594255223       29.8585243118
  H        10.2675690307        7.2246161575       30.6792137154
  H        11.7751050164        7.0041210929       31.4559475875
  H        11.7392152881        4.7182451914       32.9397608828
  H        10.5050302330        4.8952523688       33.9568226187
  H        10.3533818282        3.6181039633       32.7501727480
  C        10.2335198305        5.2884811709       28.7711855270
  H        11.6961735904        4.6505605824       30.2618330423
  H        12.2186733143        6.1058482840       29.3585626883
  C        10.7908856972        5.1039488721       27.3034907195
  H         9.7866145687        4.4082504504       29.1117327105
  H         9.4805625006        6.0269083330       28.8068017407
  C         9.6547324128        4.5276788007       26.3413131100
  H        11.6063488962        4.3148985890       27.2828932940
  H        11.2519450536        6.0044046005       26.9330229728
  C         8.3798676077        5.4317387961       26.2283591085
  H        10.1947026038        4.4205752579       25.3465925697
  H         9.3699807224        3.4993602033       26.6386448921
  C         7.2233719475        4.6831548018       25.5125823072
  H         8.0588086521        5.7289527275       27.2545951257
  H         8.6192363483        6.4534587987       25.7435419317
  C         6.8752280300        3.3664747474       26.2118248494
  C         7.5240993144        3.9321060024       24.2743662873
  C         5.9791074917        5.5905739657       25.3471629045
  C         7.0691361565        2.2160523636       25.4745228543
  C         6.2515668836        3.0469936982       27.4170505755
  C         7.4988730647        2.5475904131       24.1968641042
  C         7.9447569639        4.5715091194       23.1137119372
  H         6.2755315465        6.4537305531       24.7103092198
  H         5.7238267807        6.0538117261       26.3111307366
  C         4.7536317062        5.0248626676       24.7218115032
  S         6.8316945924        0.7960147155       26.3373334973
  C         6.1932116010        1.7118076763       27.6165916268
  H         5.9889286550        3.8389085444       28.1435831903
  C         7.8842781335        1.9492614138       22.9966357538
  H         7.9237972864        5.6280959593       23.0741657983
  C         8.3886428936        3.9769582988       21.9982889075
  H         4.9583482127        4.6262103905       23.7802288371
  H         4.5646957625        4.1653669216       25.2914724366
  C         3.6356813659        6.0273122945       24.7316871380
  C         5.8325879531        1.0099811863       28.8929655425
  C         8.3021182571        2.6304591300       21.8428408944
  H         7.8952005778        0.9439758110       22.9791155676
  C         8.8100851731        4.4161055122       20.7285975380
  H         2.8728853179        5.9006598416       23.9263242385
  H         4.0056802850        6.9878867782       24.2366752801
  C         2.8837711004        6.3041724941       26.0588357070
  C         5.8653898564       -0.3573144895       29.2696828769
  C         5.4554791123        1.8834455631       29.9731590981
  C         8.6053539236        1.9721340423       20.5371840325
  C         8.9410130678        3.3112369720       19.8501141553
  S         9.1019970065        5.9100321665       20.0601417356
  H         2.2413136374        7.1731228513       26.0516101098
  H         3.6428417557        6.6159945166       26.6452634965
  C         2.0739716199        5.1309068391       26.6159180089
  N         6.2105351872       -1.3217728171       28.3780671102
  C         5.5507449767       -0.8616095655       30.5009351564
  C         5.1163878934        1.3701572492       31.2478746020
  H         5.4710275256        2.9620474354       29.8681964863
  C         7.4274834221        1.2486942541       19.9566637295
  C         9.9547736435        1.0765384033       20.5445111781
  C         9.3735761441        3.7655423684       18.5858001447
  C         9.4804010933        5.1192905397       18.4999741598
  H         1.3581008930        5.0563816294       25.7911132325
  H         2.6159431000        4.1758305714       26.5601762966
  C         1.2743198518        5.2595413575       27.9329259461
  S         6.0990482460       -2.8082557409       29.0781394556
  N         5.6631992814       -2.2523831330       30.5554257453
  C         5.2289205594       -0.0511801825       31.6018275217
  H         4.7524396844        2.0456146139       32.0526438745
  H         7.1026700918        0.3740353707       20.5143863923
  H         7.7404394201        0.8765876797       18.9777554285
  C         6.1193305100        1.9013681581       19.7366717233
  H        10.0298817794        0.6634659573       19.5054115347
  H         9.7743562426        0.2190793502       21.2571990792
  C        11.1840272214        1.8626173760       21.0247196371
  H         9.3877651304        3.0509646920       17.8127467236
  C         9.7121315710        5.8245935298       17.1892256839
  H         0.5678135198        4.4197260330       28.1438125941
  H         0.8014142682        6.2626611578       27.8229561919
  C         2.1669459140        5.4279061420       29.1888569067
  C         4.9139951081       -0.7068119660       32.8575243708
  H         6.1472145489        2.9891642865       19.9282098922
  H         5.4296679964        1.5683549021       20.5059412497
  C         5.6762738509        1.6990215863       18.3125118018
  H        11.0872259467        2.5545486628       21.8545300283
  H        11.4802244876        2.4962399698       20.1623141572
  C        12.2870685988        1.0044676331       21.4398329939
  C         9.7140715521        7.1930335358       17.0338578220
  C         9.9097785705        5.0123804313       15.9393806135
  H         2.8623051202        4.6207269040       29.1189418165
  H         2.7338913789        6.3903380141       29.1491044416
  C         1.3584137593        5.3819371432       30.4573588030
  H         5.2107452287       -1.7710182489       32.8693013441
  C         4.5954168360       -0.2577937737       34.0616039944
  H         5.8222085377        0.6831849116       17.9797277178
  H         6.2989761025        2.2713512822       17.5277092560
  C         4.3551232166        2.1775520227       18.0470438086
  H        12.1131193832        0.5729192235       22.4369441084
  H        12.4030009715        0.1313428130       20.7344837558
  C        13.4675839380        1.8300099511       21.5369548930
  N         9.7581542028        8.0775352547       18.1071452108
  C        10.0535286805        7.8683188240       15.8830222567
  C         9.9865993720        5.7165763344       14.7064189808
  H         9.8968382636        3.9331222793       15.9412085912
  H         2.0217826630        5.4340395632       31.3716906786
  H         0.6953171667        6.2127703456       30.5182956896
  H         0.7389424987        4.4380344083       30.6234123775
  S         4.2224900441        1.3304780163       34.4796256640
  C         4.8822735313       -1.2446692486       35.1847143178
  H         4.3303938445        3.2094121447       18.4459154984
  H         4.3755759159        2.2412383519       16.9360231068
  C         3.1320970572        1.4301041702       18.5230313544
  H        13.2000461250        2.7513630769       21.9510161356
  H        13.9436427360        2.0853696559       20.6068871861
  C        14.5704495765        1.3212789152       22.4864240685
  S        10.0199326983        9.5989577869       17.5703824830
  N        10.2867016769        9.2546708320       16.0311560833
  C        10.2812122795        7.1846097525       14.6634765831
  H        10.1381475027        5.1721332762       13.8207291042
  C         4.1924982957        0.6588499768       36.1572655705
  N         4.4496370740       -0.6054270946       36.3072426605
  O         5.2872035428       -2.4010096405       35.0856798097
  H         2.3613101370        2.1882520260       18.5272732588
  H         3.3423401523        1.0075210250       19.5194014593
  C         2.7193015721        0.2490249558       17.5180122545
  H        14.3976634043        1.8281038720       23.4554308101
  H        14.4662594865        0.2545179889       22.5788552425
  C        15.9602819553        1.7676270819       21.9509268922
  C        10.6456132884        7.9640849380       13.4791561351
  S         3.5434860741        1.6479411394       37.5004928110
  C         4.6287349506       -1.3388398324       37.5227760182
  H         2.1932132605        0.6597757578       16.6977002993
  H         3.6788326664       -0.0964455400       17.0931953233
  C         2.0086219485       -0.8663832574       18.2626099984
  H        15.8932270105        2.8603504409       22.0385769641
  H        16.1519342226        1.5167527926       20.9284348567
  C        17.1462544566        1.3689338098       22.8134256294
  H        10.4062857793        9.0118340668       13.5619892647
  C        11.1739534041        7.5396984377       12.2832538973
  H         4.1236488701       -0.7891754465       38.3060636407
  H         4.1795234317       -2.3384935071       37.3822305085
  C         6.1519839038       -1.4336269301       37.9057505458
  H         1.2290506662       -0.3668625913       18.7376102320
  H         2.7455895580       -1.3571026036       18.9405903997
  C         1.4793896732       -1.9062447139       17.3301601116
  H        17.5783098240        0.5575770335       22.2864930591
  H        17.8078977665        2.1794414255       22.7864311125
  C        16.8376857713        1.1222991278       24.2343874498
  S        11.6325957375        5.9034961196       11.7357695579
  C        11.2229302658        8.5603133792       11.1640648199
  H         6.4660289526       -2.1742359201       38.6671246708
  H         6.8948268621       -1.5577039011       37.0647761007
  H         6.3597165881       -0.5528395085       38.4319944799
  H         1.0431140529       -2.7905708155       17.9169010296
  H         2.2405985748       -2.4242921140       16.6910534406
  H         0.6198306270       -1.5448161779       16.6774197694
  H        17.7762161205        0.8634120135       24.6849939487
  H        16.2671105267        0.1733570784       24.3543704907
  H        16.2968603337        2.0109119913       24.7425635472
  C        12.0644844594        6.6638129827       10.2156709026
  N        11.7867508597        7.9787084890       10.0864993655
  O        10.9417892289        9.7889959321       11.3365737122
  S        12.5094778784        5.8911646620        8.7819383928
  C        12.0898167754        8.7225623721        8.8566226699
  H        12.4178112027        9.7077224759        9.3202365644
  H        13.0302030135        8.3902071023        8.2829820611
  C        10.9329809090        9.0005980126        7.9778188629
  H        10.4026813046        8.1367322831        7.5871367449
  H        10.1502986769        9.6276209862        8.4979994344
  H        11.2913494302        9.5192479908        7.0623909301
  H         4.1696871914        1.4028492706       12.8499133637
  C         3.6518591986        2.3132193714       12.8912762734
  H         4.3612775196        3.1314225931       12.7732810263
  C         2.6225194844        2.4815194472       11.7229682699
  C         3.0688538140        2.3009197199       14.3225336285
  C         3.4972582524        2.8354267365       10.4851526588
  H         1.8773197717        3.2540893516       11.9701369869
  H         2.1818583154        1.4654535170       11.4683626908
  H         2.8698800163        3.2603676651       14.7035383499
  H         3.7601807440        1.7923763649       14.9462961278
  H         2.1378665383        1.7328004589       14.2813216935
  C         4.2431761777        1.6295658956        9.8567478063
  H         2.7629517916        3.3860833750        9.8387229060
  H         4.2360940731        3.5634054036       10.6373915708
  C         4.8817383977        1.8701125911        8.4374550492
  H         3.4520084773        0.8993548463        9.6672457255
  H         5.0289589006        1.1940597227       10.4866804226
  C         6.2160526402        2.6736861224        8.6313816372
  H         4.1000860722        2.5358016960        7.9956825429
  H         5.0351729981        0.8865666953        7.9969742089
  C         7.4756333495        1.7524932017        8.7881369455
  H         6.3792622459        3.4994858409        8.0066162290
  H         5.9953444466        3.1345233678        9.5705284043
  C         8.7420874497        2.5453272734        9.0891244891
  H         7.5778189379        1.1043014819        7.9203224461
  H         7.3551260378        1.0810317620        9.5673194053
  C         8.4627921698        3.9248871730        9.6931031429
  C         9.2692182493        3.2111712276        7.7931294772
  C         9.8748868173        1.7255201647        9.8124277724
  C         8.7217615570        4.9996482238        8.8793977214
  C         7.8821853404        4.3191773170       10.9001267851
  C         9.2467288044        4.6051275733        7.6704130433
  C         9.8536916470        2.5259602726        6.7659274914
  H         9.5352625938        1.1724573027       10.7309847094
  H        10.0930984955        0.9873145012        9.0316105895
  C        10.9811078092        2.6037510972       10.2782504448
  S         8.3924879777        6.5195175962        9.6197392870
  C         7.7947834092        5.6658944277       11.0409647039
  H         7.6736607128        3.5851471567       11.6546046119
  C         9.7456540534        5.1888707660        6.5537124164
  H        10.0066625449        1.4826184576        6.8386141543
  C        10.3105078437        3.1013546565        5.6475932747
  H        10.6635331124        3.4615184045       10.8789266981
  H        11.4686107374        2.9472348614        9.4321104907
  C        12.0129813881        1.8879757841       11.2109298941
  C         7.2910408498        6.3667659163       12.2628609293
  C        10.3197707823        4.5080771081        5.5116746781
  H         9.8807496706        6.2742459882        6.6506289452
  C        10.7768388815        2.6583956674        4.4213566190
  H        12.9160280657        2.5130091784       11.0884136128
  H        12.2207815165        0.9343429662       10.8439472948
  C        11.5086042381        1.8314505482       12.6277756537
  C         7.2734019378        7.7401254609       12.4812263422
  C         6.8274936889        5.5102200966       13.4257536130
  C        10.7715645620        5.1396613441        4.1809151481
  C        11.0112013927        3.7418036151        3.6010291119
  S        10.8240810238        1.1032384041        3.6084374864
  H        11.1040230202        2.8480577581       12.8526722247
  H        10.6216744714        1.1399957998       12.7703254769
  C        12.5800353207        1.3745933040       13.5583030119
  N         7.7245558022        8.7652252898       11.6071488092
  C         6.9347536067        8.2645663384       13.7298324096
  C         6.5198129213        6.0571688246       14.6742871027
  H         6.6835011561        4.3738212496       13.3023351513
  C        12.1102858628        5.8414184335        4.2933988667
  C         9.7248403522        5.9868678554        3.3961562012
  C        11.3714897399        3.3255819773        2.3518067630
  C        11.3325429963        1.9268358696        2.2255112465
  H        13.3672405172        2.0520301972       13.6126048998
  H        13.0110104604        0.3803880611       13.2086134286
  C        12.1064840294        1.1718520292       15.0396892651
  S         7.7550253084       10.1942885535       12.3707611343
  N         7.1627590207        9.6570131490       13.8093587235
  C         6.6253515083        7.4861487960       14.8881091744
  H         6.2497705332        5.4332711078       15.4951138870
  H        11.9511080678        6.5953752771        4.9894519565
  H        12.3297658142        6.3312836128        3.4252204411
  C        13.3212067079        4.9928328763        4.6601975453
  H         9.5925920910        6.9161831095        3.9117438198
  H        10.0177581948        6.1969168271        2.3520210186
  C         8.3634200956        5.2983561328        3.2411262809
  H        11.6670159016        4.0867872082        1.6841465265
  C        11.6927645482        1.2590633467        0.9406329942
  H        11.4761821662        1.9926542004       15.1759832881
  H        11.4418738674        0.3049391424       15.1330332043
  C        13.1744595838        1.1458198569       16.1438403658
  C         6.3562059124        8.1172015034       16.1818020228
  H        13.0021373920        4.4629520908        5.5690081830
  H        13.5268079809        4.1438942509        4.0317928939
  C        14.4436994139        5.9190800416        5.0114027558
  H         8.0661144432        5.0177345831        4.2550996807
  H         8.5484275536        4.3918411708        2.6691171893
  C         7.2956118935        6.0724380425        2.4748295985
  C        11.8389960611       -0.1497028254        0.7676122528
  C        11.9928948159        2.0686811856       -0.2256640401
  H        13.8879755043        1.8993808292       15.8992791145
  H        13.6929484172        0.1940354191       16.2056569730
  C        12.5096102629        1.3959313208       17.5416483837
  H         6.6237849842        9.1929126485       16.2111944023
  C         6.2088793729        7.6005651189       17.4165799210
  H        14.0806107058        6.6084498280        5.8167629787
  H        14.4543035726        6.5391426380        4.1091395242
  C        15.8075739112        5.2231522220        5.2851066785
  H         6.9341068684        6.8314614567        3.1464610950
  H         7.7491077551        6.4153594944        1.5458571139
  C         6.1351898835        5.2048945705        2.0436531476
  N        11.5525468438       -1.0978568636        1.7853115897
  C        12.2195283808       -0.7348988346       -0.4493712093
  C        12.4828032779        1.5446083408       -1.4223499361
  H        12.0243458503        3.0716046969       -0.1575214665
  H        11.9167403422        2.2880802467       17.6007801902
  H        13.2895487685        1.2777497428       18.2524855813
  H        11.8716199740        0.5751557662       17.8145942325
  S         6.0392124607        5.9451608812       17.9821338306
  C         6.2285762859        8.5997356928       18.5341522894
  H        15.9693832817        4.4158524057        4.6176071603
  H        16.5071655879        6.0468964850        5.1210166065
  C        15.7880811097        4.6755349878        6.7040291394
  H         5.5549727917        4.9928435098        2.8982017199
  H         6.4379744261        4.2462432655        1.6737066806
  C         5.3723827038        5.8376535995        0.9717134471
  S        11.8655641176       -2.6168871338        1.1955409497
  N        12.2973904622       -2.1145845071       -0.3703629852
  C        12.6237950466        0.0458351715       -1.5475010470
  H        12.6337828955        2.2283081789       -2.2925943399
  C         5.8188491457        6.6606560692       19.5458684204
  N         6.1460937056        7.9950121141       19.7404626160
  O         6.5217990265        9.7816171619       18.3926579544
  H        15.4213281340        5.4663890411        7.3392090378
  H        15.1406854429        3.7676259070        6.7014414442
  C        17.1704596430        4.2338738155        7.2158923760
  H         5.8714315205        5.9469588196       -0.0260765737
  H         4.5537303048        5.1260313714        0.7933376446
  C         4.6089595040        7.1386884522        1.4151622665
  C        12.9992004400       -0.6721473528       -2.7091458994
  S         5.3437515559        5.8152255533       21.0752705118
  C         6.1394319110        8.7596335577       20.9227820700
  H        16.9496162226        3.7707442929        8.1792617457
  H        17.5054845389        3.4412058891        6.5798191791
  C        18.2643028086        5.3102934305        7.4966510512
  H         4.1820082522        7.0339157783        2.4366542868
  H         3.7671954127        7.1797087835        0.8025660937
  C         5.3412992522        8.4361384178        1.2342567774
  H        12.7330622097       -1.7521808076       -2.7089044900
  C        13.4178318433       -0.2348106978       -3.9310647417
  H         5.3482182679        8.5393658220       21.6191586809
  H         5.8964647893        9.7648153425       20.6752047412
  C         7.5114663777        8.6450397996       21.6287908193
  H        18.9070102626        5.0099750689        8.2824692268
  H        17.7258250061        6.1943364187        7.9107659141
  C        19.0414735287        5.6806872664        6.2306182514
  H         6.0144453381        8.6069338329        2.0828712955
  H         5.8788378186        8.2388690336        0.2766465593
  C         4.3544790302        9.5652387154        1.2012167058
  S        13.8795227547        1.3812303309       -4.4538599036
  C        13.5376193179       -1.2504699242       -5.0189237951
  H         8.2895955258        9.0255596044       20.9679863565
  H         7.6850335555        7.6623191574       22.1253447098
  H         7.4370618556        9.3559990243       22.5003961939
  H        18.6504413827        6.6302059904        5.8059955437
  H        20.0684285724        5.7535000431        6.4515652582
  H        18.8672396221        4.9359210816        5.4524825130
  H         3.3601394835        9.3176158523        1.5825049925
  H         4.6605627526       10.4389996746        1.7656978650
  H         4.2215764279        9.9226833247        0.2098624542
  C        14.3382565077        0.6452332676       -5.9817767159
  N        14.0599881599       -0.6809911341       -6.1057459384
  O        13.4002278300       -2.4641899294       -4.7994998206
  S        14.9738836565        1.5042307433       -7.4246706578
  C        14.2029712469       -1.4846809541       -7.3047863600
  H        14.5320208368       -2.5323282845       -7.0035245130
  H        15.0344607928       -1.0855746822       -7.9276530756
  C        12.9218457221       -1.3336550706       -8.1033191659
  H        12.5913011247       -0.3676118981       -8.2027334006
  H        12.1926571005       -1.9584741085       -7.6165917026
  H        12.9858810516       -1.6667803909       -9.1294379742
