352
 i =   128500, time =    64250.000, E =        99.5925370116
  H         9.9744101094        6.1401240260       30.3867220363
  C        10.8279010720        6.2844553648       31.0567584890
  H        10.9377598645        7.3584131429       31.3016549830
  C        12.0734190480        5.8842842150       30.1609771733
  C        10.8470992942        5.5088087186       32.2984015238
  C        11.7802296847        4.7676395168       29.1563027382
  H        12.5276527978        6.7874502692       29.7133351892
  H        12.8009831614        5.4683476881       30.8568033874
  H        10.9208221568        4.4211059695       32.1153216284
  H        11.6771563592        5.9284567722       32.9143984501
  H         9.9151447562        5.6887407034       32.8200805148
  C        11.9279984542        5.2250498145       27.7604452155
  H        10.7961545983        4.2849096297       29.3714174914
  H        12.5410490409        3.9854358399       29.2193846667
  C        10.6907303571        6.0838014322       27.3551482007
  H        12.9020055519        5.6724045315       27.6139149180
  H        12.0404687544        4.3313188916       27.1361284672
  C         9.7550317082        5.2690272098       26.4950013235
  H        11.0652913299        6.9425202822       26.8436933532
  H        10.1822725320        6.5988039083       28.1515479334
  C         8.5477464509        6.0089925222       26.2595977361
  H        10.3148058854        4.9698947438       25.6491148498
  H         9.7469580003        4.3132279857       26.9988610017
  C         7.3451854487        5.2416926055       25.5798595601
  H         8.1882926598        6.4770890942       27.1477356474
  H         8.7091267896        6.8927749132       25.6386930212
  C         7.0746130797        3.8898157544       26.3345275576
  C         7.8738630317        4.5343281647       24.3685301461
  C         6.1041835805        6.1004005111       25.3836723096
  C         7.3737956058        2.8109907850       25.5207917287
  C         6.6160030991        3.4202764724       27.5702935088
  C         7.8262579208        3.1900418066       24.2887749753
  C         8.3005382351        5.1384716430       23.1926714152
  H         6.2603711565        6.9298018564       24.7221981134
  H         5.8876989668        6.5863063590       26.3513562174
  C         4.8989366631        5.3631812530       24.9648046557
  S         7.2150667719        1.2224901947       26.2517562618
  C         6.6541914687        2.0340994167       27.7249266159
  H         6.2149577840        4.1361650042       28.2831029942
  C         8.1422241486        2.5194534380       23.1011562905
  H         8.1254983812        6.1914208470       23.1275298731
  C         8.5960292806        4.4776813897       22.0156076870
  H         4.9766192591        4.9880236586       23.9638722456
  H         4.7338362582        4.5199162178       25.6245835178
  C         3.6622428273        6.3122737135       24.9823792492
  C         6.0902566839        1.3155142043       28.9481808343
  C         8.6219744330        3.1302974010       21.9475471953
  H         8.0617420876        1.4480884240       23.1086633753
  C         8.9653073938        4.8685901647       20.7135803475
  H         2.9947652566        5.8731213384       24.2565230250
  H         3.8108639597        7.2264349668       24.4658014014
  C         2.9445457603        6.5629292676       26.2800788876
  C         6.1304370448       -0.0557517823       29.2222265589
  C         5.4881854948        2.1412595033       30.0491008880
  C         8.9486787921        2.4163224500       20.6422998730
  C         9.2189337169        3.7468831856       19.9196032745
  S         9.3215214693        6.3348663934       19.9439280595
  H         2.1985248027        7.3096005556       26.1525885797
  H         3.6062303085        7.0884374325       26.9643464215
  C         2.3618516757        5.3011032763       26.9134804479
  N         6.5434837723       -1.0075176226       28.3153252781
  C         5.7153359454       -0.6064728155       30.4170671735
  C         5.1105675098        1.6136550165       31.2704334569
  H         5.3962026039        3.2043785756       29.9700388183
  C         7.6971627007        1.6448818762       20.0455171453
  C        10.1985679118        1.5469481133       20.8392032086
  C         9.7584005911        4.1338343131       18.6718076762
  C         9.6789264417        5.4624946803       18.5357392366
  H         1.8314809526        4.8605944852       26.0408078593
  H         3.1611893310        4.6288638230       27.2286451198
  C         1.3667569847        5.5465965291       28.0142879370
  S         6.5558506223       -2.4327018349       29.0761680459
  N         5.8376169004       -1.9862674807       30.4213320900
  C         5.2404884062        0.1905868228       31.5611323045
  H         4.7147908907        2.3636966282       32.0131375111
  H         7.5380878614        0.6467516182       20.5839939999
  H         7.8965613169        1.4660623425       18.9777177801
  C         6.4165461532        2.3065245693       20.2014116071
  H        10.4109581799        0.8524342211       20.0013682185
  H        10.0600893571        0.9320922213       21.7371110341
  C        11.5022813004        2.3674094778       21.0377727635
  H        10.0764548777        3.3421704713       18.0809083036
  C         9.9919388985        6.2122251744       17.2411911295
  H         0.7135567264        4.6719801565       28.2282861083
  H         0.6163728589        6.3123458327       27.6860877280
  C         1.9103198110        5.8896849072       29.4253544962
  C         4.9462603329       -0.3814425846       32.7789696313
  H         6.5190869273        3.3916963684       19.9656785095
  H         6.0741866858        2.1779729106       21.2037570841
  C         5.3445933177        1.6871054976       19.3353282305
  H        11.3035819733        2.9241457047       21.8752537366
  H        11.7779616761        3.1723519002       20.3702519457
  C        12.7220703262        1.5366103394       21.2970198696
  C        10.0495988958        7.6105520020       17.0433374253
  C        10.0296696405        5.4116415307       16.0262561390
  H         1.5616826203        6.9686583394       29.6366415254
  H         1.3058376516        5.4228433694       30.2156292305
  C         3.3845697967        5.4520459776       29.7104927942
  H         5.1348154425       -1.4979468693       32.7469497957
  C         4.7346683744       -0.0040122414       34.0406190181
  H         4.4643142757        1.7789295451       19.9210601505
  H         5.4433137722        0.6518622434       19.1867046411
  C         5.2855848190        2.2687886016       17.9042953460
  H        12.5341093070        0.8699631914       22.1732529280
  H        12.9858594975        0.9377277496       20.3657455739
  C        13.9643946940        2.4282204602       21.5363069927
  N         9.7839005524        8.5179013944       18.0636876644
  C        10.2913435778        8.2320027282       15.8402002906
  C        10.2664798503        6.0213650470       14.7355802568
  H         9.9902114799        4.3017677132       15.9972517438
  H         3.5750519350        4.4339806330       29.4365843736
  H         3.9969959622        6.0760801206       29.1000455679
  H         3.6690679646        5.5826746696       30.7739957999
  S         4.3645768864        1.6094209662       34.4981757155
  C         4.7678003666       -0.9743247941       35.1322183538
  H         5.3561574498        3.3492215878       17.9296183665
  H         6.0918308892        1.8868301298       17.2884550042
  C         3.9222653963        1.9733941464       17.3124498137
  H        13.7257320997        3.3495324016       22.1332991202
  H        14.3178929661        2.6928825843       20.5193420339
  C        15.1130289457        1.6589205351       22.1481957831
  S         9.9514493853       10.0346189860       17.5051687750
  N        10.3644003128        9.6516338147       15.9827744755
  C        10.4999111612        7.5063734993       14.5938375966
  H        10.3904042433        5.3642461333       13.8881893958
  C         4.2508520305        1.0113868692       36.1316489615
  N         4.3456964287       -0.3393514669       36.2183547712
  O         4.9097667572       -2.1770618352       34.9290232439
  H         3.7240675426        2.5080633520       16.3507569747
  H         3.1503794974        2.3211300570       17.9125241151
  C         3.6402594690        0.5149384979       16.9374308632
  H        14.9875490314        1.2378570832       23.1104799744
  H        15.2225401646        0.8009866010       21.4982733338
  C        16.3220866751        2.4813428728       21.9119593705
  C        10.7730421759        8.2900430720       13.4286587780
  S         3.6696752003        1.9490676897       37.4989255369
  C         4.3465676598       -1.0233200599       37.5056260281
  H         3.2254248630        0.4607794400       15.9408120209
  H         4.4742091836       -0.1264952227       16.8518641188
  C         2.7267890160       -0.1361889202       17.9986926665
  H        16.2123136105        3.5176465093       22.0638817915
  H        16.5311067817        2.5051258780       20.8695388791
  C        17.5519893774        2.0199886367       22.7229962154
  H        10.3170465419        9.2964549637       13.4107221471
  C        11.3043377525        7.8885934625       12.2263134444
  H         3.7740858909       -0.4862710871       38.2466848993
  H         3.8522599168       -1.9807393006       37.4775067263
  C         5.7971398414       -1.1929119530       37.9865205616
  H         1.6942365899        0.1905639755       17.8223640745
  H         2.7697670770        0.3142302519       18.9392348807
  C         2.9299058689       -1.6562589065       18.0417771626
  H        17.6084359597        0.9351551107       22.5020196283
  H        18.4853308249        2.6218811861       22.4785057747
  C        17.3413423728        2.1842877454       24.2183485314
  S        11.8859427323        6.3711658628       11.6981714135
  C        11.4140126104        8.9367920260       11.2255405813
  H         6.3870966922       -1.9370556076       37.4606420877
  H         6.3585220579       -0.2293842531       37.9934931882
  H         5.7960084529       -1.5351334070       39.0335410744
  H         3.3476773733       -2.0729147311       17.1471267139
  H         1.9886942622       -2.0805882731       18.3724221584
  H         3.6691602716       -1.9863418379       18.7624038438
  H        18.2827536474        2.2514098951       24.7524748918
  H        16.6940738951        1.3875421917       24.6729823902
  H        16.7934340220        3.1235184448       24.3232785255
  C        12.3356171097        7.1658987466       10.2317337778
  N        12.0152802567        8.4716431795       10.1291183185
  O        11.1244478282       10.1006585042       11.4123043970
  S        12.7395373493        6.3049442467        8.7601619199
  C        12.1555002313        9.3653953197        8.9461822368
  H        12.4956524925       10.2723071547        9.3365167037
  H        13.0149429559        9.1042633819        8.2208344899
  C        10.7501426403        9.5255295747        8.2662713307
  H        10.4541733216        8.5052639333        8.1734677155
  H         9.9868122453       10.1382248041        8.7139005097
  H        10.7706374741        9.8089765583        7.2005538847
  H         1.9207090581        1.5965492254       11.7005757861
  C         2.8892637135        2.0643281839       11.9551147772
  H         3.6508366240        1.2814340280       11.6629610410
  C         2.9995129231        3.3180535335       10.9841832269
  C         3.2651731898        2.4913883610       13.3520707474
  C         4.2295333926        3.2709887727       10.0168238171
  H         3.1203737578        4.2059174518       11.6389378669
  H         2.0194469635        3.3498741515       10.5394285030
  H         3.6753201110        1.5784724073       13.8819416972
  H         2.5335534662        3.0369136374       14.0010295922
  H         4.1334223578        3.0722981471       13.3187402092
  C         4.6823771405        1.9038947715        9.3975801366
  H         4.0353248578        3.9181047177        9.1136180978
  H         5.0316625920        3.7663811775       10.4879133914
  C         5.5663868578        2.0994927766        8.2215056166
  H         3.8708967841        1.2787432744        9.1570439860
  H         5.1586336340        1.4583873708       10.1900163228
  C         6.9580233310        2.7613336805        8.4835665362
  H         5.0259324325        2.6084664209        7.4280362173
  H         5.6656795057        1.0504575307        7.9171842364
  C         8.0850880919        1.9901694757        9.0390331393
  H         7.3610716396        2.9839435312        7.4496080242
  H         6.7387943481        3.7180536756        8.9198094408
  C         9.3760026468        2.8148296075        9.2753527026
  H         8.2276508498        1.2402596720        8.2938037053
  H         7.8927996928        1.4487971618        9.9701876739
  C         8.9754037164        4.1114994832        9.9035261481
  C         9.7925313494        3.5009356414        7.9534907410
  C        10.4741228098        1.9872838046        9.8944269280
  C         9.1516926779        5.1915772062        9.0593856023
  C         8.3598128339        4.4944376565       11.0757957783
  C         9.6300130227        4.8511254384        7.8296894024
  C        10.1682377330        2.8988957669        6.7562370097
  H        10.0091387989        1.5291985000       10.8107491360
  H        10.7509723204        1.2204555204        9.1705055163
  C        11.7769211591        2.7209246875       10.1886488867
  S         8.5937047674        6.6541082368        9.7345809014
  C         8.2285383672        5.8536305412       11.2088051799
  H         7.9473346921        3.7827896256       11.7509449496
  C        10.0299027696        5.5228800233        6.7328222218
  H        10.1682114896        1.8442077127        6.8010512806
  C        10.4247371700        3.5876250521        5.5610491566
  H        11.5190337851        3.7184171243       10.5652013461
  H        12.4095488964        2.8444790600        9.3401840957
  C        12.6273403183        2.0238211570       11.2925511031
  C         7.7035163509        6.5235679478       12.4354696295
  C        10.4773777910        4.9606006612        5.5219412791
  H         9.8236994714        6.5437590715        6.7018041225
  C        10.8163596961        3.0769905607        4.3123432020
  H        13.6513765829        2.2964013504       11.1893770899
  H        12.6207234664        0.9265400257       11.3139245519
  C        12.1638804955        2.5674412583       12.6233286386
  C         7.6659532846        7.9187225376       12.7154697907
  C         7.3570017269        5.6281354004       13.6047847213
  C        10.8030993130        5.5567161846        4.1859824376
  C        10.9975892843        4.1212692553        3.4470604330
  S        11.2854234147        1.5237558258        3.6895881243
  H        12.4577430981        3.6336094368       12.7836910370
  H        11.1001600769        2.4721721355       12.6645881797
  C        12.8925186505        1.8699818050       13.7797508456
  N         7.8440420711        8.8947837993       11.7714011580
  C         7.3233084710        8.3749564317       13.9301928294
  C         7.0503684162        6.0772721240       14.8579223579
  H         7.3937036024        4.5030560315       13.5944787398
  C        12.1084563710        6.3670774650        4.4098296135
  C         9.7147071522        6.4970132869        3.6749513809
  C        11.4830627691        3.6485195131        2.1645257602
  C        11.5710479923        2.2726792938        2.1422699509
  H        13.8685998829        2.2679416431       13.9510721678
  H        12.9873423353        0.8152055621       13.6002662341
  C        12.1492327643        2.1949483740       15.0011514815
  S         7.9294283345       10.3073736065       12.5970204034
  N         7.4800356947        9.7397693243       14.0311532574
  C         7.1144783998        7.5337186400       15.0917242762
  H         6.9484610609        5.4174859474       15.7022903447
  H        11.9890888146        7.2480978959        5.0667644025
  H        12.2071314422        6.8046155935        3.4128192787
  C        13.3803204853        5.4585048237        4.6573385411
  H         9.4176581898        7.0402347141        4.5405604150
  H        10.1614991416        7.1362542860        2.8655110688
  C         8.4314500162        5.9588074992        3.2639298228
  H        11.6824157838        4.3883797102        1.4023189839
  C        11.9896125172        1.4766809473        0.9822892475
  H        12.0127857302        3.2822264888       15.0751495097
  H        11.2096040612        1.7109739044       15.1252824736
  C        12.8903764052        1.7792521281       16.2930534607
  C         7.0282028101        8.1686234629       16.3513374819
  H        13.1501612665        4.5693411244        5.2910303355
  H        13.5927972818        5.0341389321        3.7205585319
  C        14.5987268183        6.2425087574        5.2129858204
  H         7.9810068880        5.5224618792        4.1373752888
  H         8.6241028055        5.1155718379        2.5585835702
  C         7.4327062626        6.9496666745        2.6288358654
  C        11.8974658187        0.0932926164        0.8079375082
  C        12.4219870787        2.2086794131       -0.2746398422
  H        13.8562379865        1.3618550072       16.0274382366
  H        12.2974626655        0.9304185739       16.5509694053
  C        12.9580583528        2.7921783013       17.4100036629
  H         6.8647857996        9.2355955281       16.2592138142
  C         6.5582577367        7.7808598567       17.5708005894
  H        14.2760977108        7.0317213367        5.8506635563
  H        15.2192618645        6.6873757749        4.4154983672
  C        15.4235812484        5.2502885100        6.0312454092
  H         7.1715592772        7.7063089451        3.3718764332
  H         7.8701761761        7.4550100623        1.7943526831
  C         6.1407327908        6.1634805228        2.2398917201
  N        11.4368550527       -0.7552566960        1.7656249965
  C        12.1430501344       -0.5466719169       -0.3879431177
  C        12.6992097266        1.5753443702       -1.4986100163
  H        12.4949224518        3.2425712850       -0.3059759454
  H        12.0590412037        3.3359307332       17.5754359557
  H        13.7307957654        3.4698864199       17.1071257932
  H        13.3797693236        2.2475527430       18.3071786289
  S         6.1804539176        6.2137961615       18.0727001345
  C         6.6006539652        8.8330651286       18.6444850942
  H        15.1354408831        5.2103028943        7.0991180680
  H        15.4011529692        4.2391039603        5.5579408732
  C        16.9212920981        5.6753308315        5.9244428308
  H         5.8444463730        5.5659743033        3.1192606176
  H         6.5314529457        5.5569249940        1.4336604674
  C         5.0676867678        7.0167512593        1.5282731904
  S        11.5167756386       -2.3226737184        1.1753856955
  N        12.1176565214       -1.9352621267       -0.2966396148
  C        12.6110553849        0.1020360817       -1.5625733581
  H        12.9517118290        2.1480482136       -2.4173626445
  C         6.0352139636        6.9069692618       19.6805814157
  N         6.1308069788        8.2348156233       19.7515256387
  O         6.8012163136       10.0210792604       18.5392054118
  H        17.3009781873        5.3147156474        4.9739042720
  H        17.0638247376        6.7446576231        5.8503794823
  C        17.6850685168        5.0402265060        7.0711663975
  H         5.5243083542        7.3536549021        0.5703006190
  H         4.2584132862        6.4198545051        1.2423870596
  C         4.5162017320        8.1254143961        2.3517299260
  C        12.7514575844       -0.5845189448       -2.7798453646
  S         5.5726675820        6.0369125463       21.1539096401
  C         5.8797674582        9.1333848454       20.9481510778
  H        17.2267490742        5.1135784067        8.0009656702
  H        17.7669499237        3.9280493681        6.9108350872
  C        19.1320179061        5.5384391580        7.1107085704
  H         4.9215545185        8.1396292219        3.3449639226
  H         3.4620871155        7.9205607067        2.5502935987
  C         4.6072254079        9.5265960436        1.7091370601
  H        12.3340103411       -1.5589565459       -2.8045719716
  C        13.2725764605       -0.2162541481       -4.0156420696
  H         5.0322560498        8.7671650115       21.6392576354
  H         5.4799711090       10.1007864765       20.6591233722
  C         7.1851686103        9.4320630621       21.7129640280
  H        19.6514746878        4.9673992826        7.9042302829
  H        19.0356285915        6.5650520890        7.3670325811
  C        19.8618377456        5.3829610739        5.8125205995
  H         4.2288863653        9.3302908489        0.6750769435
  H         3.9760887249       10.1709803064        2.3212863296
  C         6.0745618117        9.8869719739        1.5498319214
  S        14.1527064746        1.1676077095       -4.4739728380
  C        13.1193565258       -1.2032385506       -5.1264819489
  H         8.0500995927        9.2393056386       21.0990301397
  H         7.3528338249        8.8500753643       22.5822323349
  H         7.1748585283       10.4557869034       21.9910799764
  H        19.7659912286        6.1644236372        5.0940980163
  H        20.9975612890        5.2492333677        5.7733547236
  H        19.4406464037        4.4473181539        5.3834384737
  H         6.5713138452        9.5600623927        2.4976052443
  H         6.4599491021        9.2506952059        0.8009492417
  H         6.2560065005       10.8795434771        1.4234303176
  C        14.3992140498        0.4140958377       -5.9887537534
  N        13.7737438959       -0.7848637427       -6.1540047014
  O        12.5966273214       -2.3438324696       -4.9935144433
  S        15.2509342712        1.0092859065       -7.3086304582
  C        13.7806360817       -1.5390037304       -7.4046383645
  H        13.4964708219       -2.5633657100       -7.1196903819
  H        14.7954071930       -1.7608629920       -7.7864455937
  C        12.6874279854       -0.9263258367       -8.3711586443
  H        11.8335369962       -0.7805111012       -7.7351485943
  H        12.4185333916       -1.6357506474       -9.1816234617
  H        12.9191144852        0.0181084185       -8.7268920323
