352
 i =    80500, time =    40250.000, E =       100.4740770133
  H        12.1402575641        6.7554727172       32.1687205117
  C        11.5820971341        5.7615206926       32.0381251221
  H        12.2535275765        5.0872155728       31.4889903231
  C        10.3687350100        6.1199918839       31.2693418352
  C        11.2941482206        5.1927427764       33.4441496117
  C        10.6048345646        6.5386745909       29.8209875178
  H         9.6503827878        5.3440553526       31.4491490486
  H         9.8670035834        6.9967769781       31.6992316287
  H        10.8860911142        5.9409658632       34.1040605057
  H        10.6442449883        4.2662173267       33.3586002329
  H        12.2793823427        4.8794701289       33.8228527462
  C        10.5793661291        5.3448075908       28.9086041547
  H        11.5412679654        7.1408432858       29.8011092381
  H         9.8043826329        7.1585803797       29.5230136559
  C        11.0945207407        5.6221564537       27.5126934958
  H        11.0639554538        4.4988808853       29.2836389865
  H         9.5567157464        4.9631439746       28.8720784977
  C        10.1832855087        5.0494564147       26.4443613443
  H        12.0706678132        5.1302423317       27.5327061005
  H        11.2388907723        6.6824735871       27.3965919197
  C         8.7992257670        5.8149530559       26.4172860111
  H        10.6789284459        5.2029143550       25.4546323220
  H        10.0404643346        3.9595685843       26.5787705921
  C         7.6244575026        5.1598559936       25.6597315074
  H         8.4773877220        5.9960773687       27.3969048821
  H         8.9004800117        6.7966267886       26.0461912375
  C         7.2115179067        3.7696223959       26.2536333081
  C         8.0459754527        4.4460936618       24.4144062952
  C         6.4543081490        6.1565500230       25.4366315404
  C         7.4169858483        2.6728808583       25.4084650217
  C         6.7932492750        3.3778251087       27.5507353847
  C         7.9662986187        3.1082630723       24.2235363531
  C         8.5206269195        5.1220801331       23.3001841893
  H         6.8772558991        7.0466752343       24.9502153122
  H         6.1934660453        6.5237410697       26.4711626194
  C         5.3234015594        5.4584646905       24.7721950303
  S         6.9892096478        1.2074389553       26.1568395294
  C         6.5573665153        2.0346696490       27.6058181891
  H         6.5720475546        4.1829038700       28.3121009737
  C         8.3388434618        2.5460360309       23.0739558204
  H         8.6853861682        6.1351371303       23.3550391605
  C         8.9121803619        4.5991167398       22.0841570301
  H         5.6660615201        4.9331162349       23.8660618130
  H         4.8415332611        4.6070130243       25.1938084745
  C         4.1769657501        6.5025267389       24.5187679565
  C         6.0887157547        1.3697684172       28.9109205704
  C         8.7846305396        3.2596281047       21.9129500228
  H         8.4368565203        1.5022682170       22.9142886013
  C         9.2583365891        5.0266966285       20.8287686517
  H         3.6799332215        6.0113542391       23.7403503552
  H         4.6221646888        7.4472116841       24.1854359576
  C         3.2278324141        6.7765324644       25.7172355612
  C         6.1040944550       -0.0431761466       29.1200453854
  C         5.5746081658        2.2132924332       30.0009112514
  C         9.1635602804        2.5975822852       20.6110391884
  C         9.5283902398        3.9102334947       20.0016322942
  S         9.7476377512        6.5380532655       20.2393382123
  H         2.6753219320        7.6994967914       25.4528713146
  H         3.7906687530        7.1653604237       26.5932284426
  C         2.2863067180        5.5706286265       26.1365061840
  N         6.3975981054       -1.0621777145       28.1367714662
  C         5.8103419506       -0.6508401595       30.3359254945
  C         5.1032423928        1.5573676524       31.1670460094
  H         5.5854329661        3.3079149394       30.0772427735
  C         7.9980588823        1.7987476066       19.8708689826
  C        10.4499745334        1.8014418562       20.7638929536
  C        10.0045438658        4.3742400250       18.8100815831
  C        10.0743553582        5.7602610889       18.6997313094
  H         1.5578152685        5.3203930416       25.4029274583
  H         2.9029781141        4.6384729561       26.2935440928
  C         1.3783158267        5.8336796093       27.3385087601
  S         6.4088057270       -2.5331357172       28.8759996229
  N         6.0897149972       -2.0055674047       30.4026530543
  C         5.3389053852        0.1304378357       31.4386984711
  H         4.7213781614        2.1694408312       31.9740307229
  H         7.7516473857        0.9285830454       20.4713711031
  H         8.3588425678        1.2971461361       18.9621398248
  C         6.7584588300        2.6314571031       19.6274109143
  H        10.5435544413        1.0165567526       19.9514728846
  H        10.3069226618        1.1390588548       21.6211718907
  C        11.7617416327        2.5090077485       21.1695468630
  H        10.1440827335        3.6204845202       18.0389158314
  C        10.2546239000        6.4933031098       17.3535810169
  H         0.4247136662        5.2763805146       27.2377109332
  H         1.1003668923        6.8478548345       27.2146442405
  C         2.0646182812        5.5166360476       28.6904474283
  C         5.0404712849       -0.5030182013       32.6924745968
  H         7.0013276406        3.4835106587       19.0512796799
  H         6.2415991545        3.0101649984       20.5284535520
  C         5.6294327700        1.9530561759       18.8172775379
  H        11.6250431258        2.9091205243       22.2043149122
  H        11.9652145728        3.4098253203       20.6077413602
  C        12.9179003520        1.5761250430       21.0260690005
  C        10.3850456837        7.8447184284       17.1154667296
  C        10.4667943924        5.6897199370       16.0954778738
  H         2.4778432749        4.5320076254       28.5919410449
  H         2.9641792555        6.2244651606       28.7206601733
  C         1.1265490111        5.4250986257       29.8391341426
  H         5.0155946147       -1.5836052710       32.5902835492
  C         4.8033624058       -0.0064536175       33.9548327937
  H         5.5244758907        0.9411107526       19.2174136318
  H         5.9567994709        1.7584534383       17.8344103671
  C         4.3451165869        2.7135659807       18.7807335190
  H        12.7002233667        0.7478248912       21.6179568904
  H        13.0131044117        1.3180444106       19.9825417059
  C        14.2053321986        2.2348935033       21.5550742187
  N        10.1970671493        8.7491976194       18.1331876008
  C        10.6226855660        8.4578219482       15.9190274604
  C        10.7143002798        6.2976042920       14.8105585913
  H        10.5828210585        4.6263847982       16.1943651343
  H         0.3440562606        4.6875011554       29.6153402775
  H         1.6056016095        5.2273781822       30.7893324857
  H         0.5175757622        6.3398702933       29.8432767386
  S         4.5170669583        1.6094589306       34.4107756791
  C         4.6912023325       -1.0065721778       35.0539124573
  H         4.2944686018        3.4948064775       19.5228100472
  H         4.0984232645        3.1579605518       17.8584135800
  C         3.1694069312        1.7691059396       19.0851051678
  H        14.0069542182        3.1985437759       21.9385348228
  H        15.0223732056        2.3474286885       20.8526265803
  C        14.8669133654        1.4926797319       22.7522859963
  S        10.3871363634       10.2635299039       17.5365841135
  N        10.6334156011        9.8624789250       16.0029729248
  C        10.7704704333        7.7893799027       14.6986167298
  H        11.0637335107        5.6421684773       14.0402085258
  C         4.3176154303        0.9447521261       36.0366250531
  N         4.4335684440       -0.3886311263       36.2271529681
  O         4.9340947532       -2.1753670955       34.9655036370
  H         2.2380939225        2.2599507942       18.9280098597
  H         3.0984671288        1.2775722848       20.0090197568
  C         3.0697162230        0.7155856957       18.0187644121
  H        14.0981664706        1.4072715544       23.5106102464
  H        15.0861613987        0.4243160931       22.6011171400
  C        15.9684125701        2.3096522761       23.3428073310
  C        10.8960936632        8.6092157135       13.5029365911
  S         3.8330200026        1.9307146024       37.3921551004
  C         4.3944633683       -1.0744819539       37.5360426808
  H         3.1281729538        1.2623292879       17.0977090825
  H         3.9389247126        0.1492413062       17.9559245953
  C         1.8248227519       -0.2311153012       18.0662877075
  H        16.2946633887        1.9885056338       24.3483040945
  H        15.7212083370        3.3056951703       23.4436351090
  C        17.1639061498        2.3757830839       22.4457958396
  H        10.7491090623        9.6524632792       13.5905371511
  C        11.2441202296        8.1639473085       12.2213310807
  H         3.5478927051       -0.7725044872       38.1743078913
  H         4.0432611983       -2.1286528412       37.3576295738
  C         5.6786583255       -0.9380028707       38.2876840280
  H         1.8660192376       -0.6142504089       17.0919670700
  H         0.9123117683        0.3130543151       18.1543084102
  C         1.9418980766       -1.3825773438       18.9917534076
  H        16.9774411330        1.7805068383       21.5560894617
  H        17.3154387679        3.3910228337       22.0767290753
  C        18.5087650929        1.8314301188       22.9987472172
  S        11.6223319865        6.6391788888       11.6467867192
  C        11.4589396279        9.2762341502       11.2442183516
  H         5.5073127030       -0.9896511453       39.3850330029
  H         6.3781792013       -1.7984814404       38.1311438347
  H         6.2109946623       -0.0514975800       38.0525413628
  H         2.9824991074       -1.7668493277       19.0877420441
  H         1.2546442895       -2.2235287779       18.7016735802
  H         1.7606793228       -1.0247110292       20.0619737548
  H        19.2442174157        1.7820698285       22.2031921529
  H        18.3766907804        0.8298870264       23.4329204917
  H        18.9119479775        2.4393739591       23.7689834450
  C        12.1410334570        7.4613577071       10.1241125276
  N        11.9836749961        8.8080343938       10.1005762792
  O        11.1725600078       10.4066125451       11.5759856377
  S        12.7724778995        6.6866733692        8.6797616616
  C        12.3674659128        9.7018143864        8.9202656780
  H        12.2743444456       10.7645392500        9.1986198541
  H        13.3762258883        9.4330925197        8.5667507451
  C        11.3578902994        9.6171826749        7.7596078492
  H        11.5335885148        8.7707871713        7.0444977358
  H        10.4556817943        9.2780397327        8.1926553211
  H        11.1602904472       10.6161622097        7.2193084026
  H         1.8222686270        2.5234468328       13.0821095012
  C         2.8676699037        2.2928335288       12.9179235517
  H         2.8739520941        1.3043232263       12.6795244836
  C         3.1901490515        3.2737336781       11.8531899300
  C         3.6429673840        2.4828916440       14.2238948818
  C         4.6007244678        3.1367442681       11.0401888746
  H         3.0162986535        4.3055398093       12.2812776802
  H         2.3728052499        3.2304322052       11.0405039331
  H         3.6656300783        1.5852519714       14.8286057392
  H         3.1311842283        3.2721590616       14.8135261993
  H         4.6909060855        2.7412554162       14.0289617438
  C         4.5205433110        1.8369030256       10.1714013092
  H         4.9092612174        4.0091708343       10.4548909623
  H         5.4518764114        3.0817468282       11.7221332198
  C         5.0369816914        1.8112551909        8.7526140004
  H         3.4961222400        1.5372632053       10.1346733432
  H         5.0629059195        1.0823970034       10.7583776296
  C         6.3975332019        2.5925033814        8.3965662491
  H         4.2065907858        2.0208669762        8.0294948115
  H         5.2762351618        0.7603560978        8.6822308606
  C         7.7077959545        1.9279586202        8.9866783218
  H         6.5905007972        2.7259401945        7.3202330631
  H         6.2741021923        3.5315071979        8.9717614541
  C         8.9718881972        2.8067637501        9.2412072423
  H         8.0322675855        1.1267790286        8.3213464116
  H         7.4679508722        1.7110434835       10.0155975562
  C         8.5559181257        4.1187212490        9.9170386317
  C         9.4988200017        3.4903859084        8.0691631568
  C        10.0307219289        2.0370358014       10.0792422107
  C         8.9248767001        5.2090145781        9.1604269061
  C         7.9652516628        4.5151413072       11.1244868159
  C         9.4694872691        4.8235207165        7.9250538687
  C        10.0322332187        2.8955385059        6.9233866940
  H         9.5310551051        1.6836019162       10.9898511760
  H        10.4112606930        1.0580007042        9.6248217596
  C        11.2460935641        2.9572729768       10.3662096279
  S         8.3643229109        6.6812420505        9.8194213789
  C         7.8646524583        5.8503855948       11.2668967767
  H         7.7602955004        3.8168569890       11.8891525159
  C         9.9418676641        5.4435335836        6.7869333309
  H         9.9905366033        1.8090104012        6.8901941024
  C        10.5155469882        3.4819035024        5.8005470388
  H        10.9977960617        3.9165542641       10.9261636175
  H        11.5596020569        3.3008279422        9.4101353007
  C        12.4103462793        2.3384914429       11.0944826698
  C         7.5477158612        6.5592862053       12.5738035549
  C        10.5004533220        4.8358996057        5.7133418133
  H         9.8424932670        6.4834333670        6.7913906271
  C        10.8739683833        3.1176258035        4.4779213505
  H        13.2340590634        3.0046141371       11.2013751994
  H        12.6919595809        1.4397461509       10.5073845401
  C        12.0412771085        1.8561010364       12.5289920544
  C         7.6685078124        7.9620841979       12.7836333666
  C         7.3237579837        5.6873586249       13.7574108019
  C        10.8446998047        5.4975419613        4.4411491798
  C        11.1069020918        4.2149047317        3.7023858558
  S        11.0877876533        1.5876290059        3.6600102701
  H        11.3854495317        1.0250094422       12.3545251440
  H        12.8605425920        1.3068219636       12.9185331452
  C        11.4649813919        2.8362256764       13.4311098162
  N         8.0098364631        8.9346427848       11.8072565879
  C         7.4650865434        8.4894118959       14.0144457430
  C         7.1049342568        6.2376650596       15.0096259334
  H         7.0772871624        4.6421305287       13.6284684566
  C        12.2119451152        6.2907755737        4.5828360199
  C         9.7351515295        6.2664652837        3.7349948042
  C        11.4333426035        3.7683519415        2.3806889952
  C        11.4103478496        2.3960953775        2.2047992320
  H        10.5003960537        3.1317093126       12.9783657425
  H        12.1235165755        3.6886904616       13.4373179444
  C        11.3023955148        2.1748266361       14.8726795921
  S         7.8707498439       10.4544016487       12.4930852421
  N         7.6126517581        9.8759312583       14.0153703782
  C         7.3178002899        7.7065642998       15.2366849862
  H         6.9032025935        5.5606069120       15.8122220119
  H        11.9998099291        7.1586372498        5.1848263755
  H        12.5084434734        6.6916081053        3.6232236279
  C        13.3119105963        5.5183903612        5.1903944303
  H         9.6239137227        7.1339481756        4.3673699042
  H        10.1983583765        6.6805206016        2.8270947312
  C         8.4598167634        5.5570924754        3.3943757570
  H        11.7001669892        4.5203665529        1.6410701244
  C        11.7018493559        1.6558882508        0.9832857849
  H        10.4155911375        2.4809471752       15.5102358783
  H        11.3007883462        1.0468422798       14.7731627625
  C        12.4398534702        2.6163287053       15.7864454396
  C         7.1309360783        8.4043054872       16.4381565377
  H        13.0051348948        5.1406829901        6.1732499389
  H        13.6003146677        4.7636653895        4.4603549449
  C        14.5842001965        6.3404531165        5.5398220280
  H         7.6323810796        6.1741571838        3.7851322261
  H         8.3285252826        4.5593917470        3.8042132419
  C         8.3191025783        5.4751031198        1.8319447277
  C        11.7432925878        0.2386758409        0.8448161863
  C        12.0646949305        2.4573126883       -0.1406989925
  H        12.2952827676        3.7324293734       15.9055609707
  H        13.4424835498        2.4653571270       15.4530885448
  C        12.4325471426        1.9683333429       17.2340280515
  H         7.1946586268        9.5097435370       16.3484481130
  C         6.9869902321        8.0179681708       17.7114245035
  H        14.2437875889        7.0999019033        6.2468667702
  H        14.9749134875        6.8696103934        4.6754367367
  C        15.6126397928        5.4476079221        6.1791659162
  H         8.4172187029        6.5032034928        1.5059296452
  H         9.0758467452        4.8794595929        1.3335587078
  C         6.9076914704        4.9672020600        1.4324026385
  N        11.5320694714       -0.6489686137        1.9346708646
  C        12.0859212202       -0.3726848102       -0.3692080050
  C        12.3964874749        1.8530741622       -1.3201377792
  H        12.0073771800        3.5409767592       -0.0290182124
  H        12.4868501246        2.6473082082       18.0782979247
  H        13.2211279101        1.2069937835       17.2735470014
  H        11.4426452426        1.4018772174       17.3066541369
  S         6.7154380012        6.3545865249       18.2547330038
  C         6.9209624018        9.0560887369       18.7369104322
  H        15.2768014174        4.6954934342        6.8241273631
  H        16.0212583675        5.0059881115        5.2046265574
  C        16.7747362232        6.1570388877        6.7989100490
  H         6.8176709007        3.9911496066        1.7271299462
  H         6.9202911297        4.8882813820        0.3852243537
  C         5.7259391093        5.7864541287        1.9104729680
  S        11.9012279028       -2.0994772360        1.3504270774
  N        12.2821091029       -1.7036619076       -0.2411614275
  C        12.3219512058        0.3653734897       -1.5151977163
  H        12.5688785085        2.4121516489       -2.2717471446
  C         6.3467716969        7.1470755742       19.7883798299
  N         6.5181889533        8.4966316697       19.8892493536
  O         7.1217475554       10.2148527414       18.4800203047
  H        17.1601286750        6.9863349302        6.1090390757
  H        16.5137208388        6.7857168167        7.6681799827
  C        17.9873897882        5.2418642967        7.0570086555
  H         4.8351654707        5.3231735140        1.4952363711
  H         5.5382213287        5.8275869977        3.0057497763
  C         5.7868055328        7.2422113795        1.3608836293
  C        12.6984946262       -0.3247519507       -2.7241312642
  S         6.0382437845        6.2656475443       21.2219185866
  C         6.5921896152        9.2935418118       21.1397862735
  H        17.9131239170        4.9695669476        8.0877531907
  H        18.0475615212        4.3472035969        6.4870148249
  C        19.2798922133        5.9688359182        6.9439777960
  H         6.3869514313        7.1835591060        0.4684078213
  H         6.2979336149        7.8463299536        2.1099211021
  C         4.3770066944        7.8657406069        1.0225246766
  H        12.4186868019       -1.3534942105       -2.6405209273
  C        13.3956686500        0.0666069698       -3.8736694845
  H         5.8872980484        8.8721857259       21.9062847941
  H         6.2242939753       10.3842147021       21.2032422193
  C         8.0946965183        9.2113418377       21.7292971784
  H        19.9772075174        5.6876188119        7.7597937207
  H        19.0874786669        6.9749795636        6.8518819109
  C        20.0371058575        5.5546511322        5.7222585208
  H         3.8655184526        7.4102890642        0.2015407676
  H         3.7224893331        7.5287462272        1.8324167477
  C         4.3952896259        9.4532778273        0.7773962178
  S        13.8573242805        1.7216349300       -4.2301511902
  C        13.4247281165       -0.8579812442       -4.9923643645
  H         8.3048382072        9.9173476919       22.5417017332
  H         8.7646748305        9.3861048290       20.8424845700
  H         8.3072178242        8.2274856513       22.3031789067
  H        21.1257920217        5.8598908653        5.7062810802
  H        19.9985633294        4.5213118758        5.2688845674
  H        19.5397157734        6.0290079741        4.8563461715
  H         4.7353149884        9.6339903536       -0.1984562413
  H         3.2980993202        9.7439194555        0.8044688318
  H         4.9007081811        9.9763597216        1.5614365401
  C        14.2161621356        1.0957029273       -5.8446887519
  N        14.0444332085       -0.2429648996       -5.9923260796
  O        13.0667237572       -2.0296672700       -4.9409346881
  S        14.9872690959        1.9976450423       -7.0939167478
  C        14.0063146272       -0.8846961501       -7.2730665657
  H        14.0848543355       -1.9854194360       -7.2941232643
  H        14.8561356387       -0.3841222543       -7.8440939160
  C        12.7230298349       -0.6330002443       -8.0085468528
  H        12.8127034202        0.3330203613       -8.4845560398
  H        11.8575481030       -0.5796406189       -7.3178999361
  H        12.5395104488       -1.3158143370       -8.8530048064
