352
 i =    86800, time =    43400.000, E =        97.6887027609
  H        11.8581002533        7.1347756889       33.1778926769
  C        11.6380126655        6.1352682860       32.8077218148
  H        12.6512301839        5.6287490093       32.5241947392
  C        10.7217893207        6.3251593200       31.6047712072
  C        10.9420582852        5.3614250807       33.8515846434
  C        11.3452890382        5.8594684815       30.2729404426
  H         9.7978070088        5.7798423628       31.7307327905
  H        10.5279253760        7.4493330509       31.5598089926
  H        11.8028555970        5.0709304253       34.5422268856
  H        10.2156586769        6.0279226932       34.3253633744
  H        10.4814976583        4.5057516925       33.4448192133
  C        10.3511235483        5.4857707014       29.1767498059
  H        11.9071654913        4.9267976322       30.5506951932
  H        11.9688109798        6.6662129797       29.9359456161
  C        10.9724330465        5.5035381170       27.8141286199
  H         9.8146592108        4.5428079114       29.4603380744
  H         9.4956235606        6.1400361974       29.2200410140
  C        10.0048007045        5.0192683150       26.6835645791
  H        11.8060371572        4.7694519067       27.8040540136
  H        11.4919814291        6.4191790897       27.5339614780
  C         8.7368284390        5.9178282281       26.4890186953
  H        10.5697863077        5.1096139800       25.7761262996
  H         9.8052577122        3.9222808734       26.8035688192
  C         7.5226686977        5.1959229817       25.8967748913
  H         8.5353180454        6.4365603938       27.3575589609
  H         8.8965731471        6.7019629081       25.7159031984
  C         7.0471848433        3.8675028478       26.6605625451
  C         7.7932513894        4.4336686455       24.5941274705
  C         6.3707511378        6.2455823206       25.6969581114
  C         7.1378412723        2.7398491797       25.7991313437
  C         6.5715589672        3.4580826080       27.9404238370
  C         7.6381738014        3.0707974704       24.5406183681
  C         8.0696160628        5.0140859294       23.3848046176
  H         6.6984127139        6.9230349556       24.9621841085
  H         6.1820631974        6.7448039972       26.6430950278
  C         5.0129056284        5.6291465509       25.4000467974
  S         6.5694367517        1.3017123397       26.4832451017
  C         6.2404731904        2.1423703464       27.9530373537
  H         6.2854613173        4.1587329217       28.6935650420
  C         7.9168370914        2.4117720107       23.3089745207
  H         8.1024340391        6.1031642261       23.3686420858
  C         8.3852709791        4.3845321225       22.2295009334
  H         5.0448934528        5.1297533054       24.4727797339
  H         4.7973584565        4.8648361996       26.0752411317
  C         3.8072596593        6.5068219665       25.3379667952
  C         5.7537916141        1.4704415649       29.2118716617
  C         8.3041130492        3.0122942197       22.1180281335
  H         7.8698302877        1.3599041994       23.1404204043
  C         8.7720950141        4.7718630163       20.9611233668
  H         3.0849864556        6.0708381234       24.6412848760
  H         4.1434521826        7.4820482636       24.9490639190
  C         3.1159323184        6.5802059639       26.7366352998
  C         5.7228953807        0.1343475708       29.4764492039
  C         5.3626389546        2.3643554481       30.3245016909
  C         8.6903954232        2.3348543607       20.8179660698
  C         8.9520152032        3.6613601663       20.1228700365
  S         9.1182181853        6.1716317224       20.0560388115
  H         2.5902205425        7.4978657176       26.8805939325
  H         3.8905276233        6.5297801542       27.5386147848
  C         2.1637854444        5.3307427845       27.0369094089
  N         5.9731717704       -0.8457726755       28.4843596561
  C         5.4479560719       -0.4075793838       30.6932226071
  C         5.0849982211        1.8103170792       31.5642791955
  H         5.1254327081        3.3921796871       30.1408898708
  C         7.5812211538        1.5623380889       20.0863577446
  C         9.9966711511        1.5920936696       20.7628753621
  C         9.2395900026        4.0347135962       18.7756177468
  C         9.3364648170        5.3945399055       18.5543449652
  H         1.3429225647        5.1931562703       26.2968372077
  H         2.8119356299        4.4296171432       26.9263335086
  C         1.4659037854        5.4290387447       28.3262495797
  S         5.8411525341       -2.2479463229       29.2202032410
  N         5.6509083744       -1.8116071428       30.7882208486
  C         5.1092830459        0.4015244435       31.8240590063
  H         4.7766183550        2.5482004475       32.3551340827
  H         7.4646884549        0.7416624764       20.7616799360
  H         7.9672247921        1.2369264534       19.0989697652
  C         6.3382653685        2.3565406484       19.7519242338
  H        10.3780420748        1.4045410447       19.7605114739
  H         9.9643722288        0.5866879243       21.0674166231
  C        11.0501194166        2.2410416599       21.5712624866
  H         9.2666641548        3.2586112807       18.0024150268
  C         9.6794554946        6.1562912912       17.2707761395
  H         0.9129061553        4.5176900953       28.5234290404
  H         0.7796742592        6.2456868522       28.2953718916
  C         2.2043480360        5.7475723548       29.6380120640
  C         4.9312447120       -0.2769770428       33.0574867283
  H         6.4497758439        3.4568704060       19.9565477873
  H         5.6379357443        1.9623441799       20.5416114410
  C         5.7376450016        2.0624672003       18.3471728715
  H        10.5458896279        2.5972095988       22.4290484275
  H        11.4244868951        3.1300570552       21.0404693225
  C        12.2404985621        1.4410883578       21.8876577479
  C         9.8669462222        7.5245330094       17.1324001115
  C         9.8469830849        5.4428082975       16.0086075545
  H         3.1464305085        5.1234650065       29.6225341549
  H         2.2823331211        6.8332961765       29.7477200538
  C         1.3790266728        5.3795345188       30.8464353626
  H         5.2219098023       -1.2583610433       33.1167141300
  C         4.6628041076        0.2604001735       34.3293214986
  H         6.2998423451        1.1780752662       18.0358258640
  H         5.9386467569        2.8752119731       17.6578792787
  C         4.1972609081        1.8286739770       18.3280951537
  H        12.1255808709        0.5305890341       22.4553541661
  H        12.6568000295        0.9356311415       20.9217433204
  C        13.3823734731        2.3023521373       22.4550513948
  N         9.6590128280        8.3857448883       18.2054169322
  C        10.1668309943        8.1930370623       15.9877031515
  C        10.2702953658        6.0613389413       14.7866198477
  H         9.8449874795        4.3823730902       16.0521811142
  H         0.9191389539        4.4220513885       30.6321132340
  H         1.9826554606        5.3829676162       31.8022783644
  H         0.5930452362        6.0417165954       31.1254542772
  S         4.2479434487        1.8713618863       34.9050165489
  C         4.7011952776       -0.7384905708       35.4462749314
  H         3.7829551995        2.1779030572       19.2839985668
  H         3.8807734873        2.5115530403       17.5519673107
  C         3.9031797725        0.3791873553       18.0294543159
  H        13.2454515655        2.3310444468       23.4888526027
  H        13.2552314466        3.2828527666       22.1230709964
  C        14.7642715137        1.7270215301       22.0891043494
  S         9.8644692518        9.9032225975       17.6600005740
  N        10.2729785285        9.5891124396       16.1364187402
  C        10.4741926677        7.5461117729       14.7522979158
  H        10.3209098833        5.4318456466       13.8421360427
  C         4.2101536274        1.2366818189       36.5383879075
  N         4.3931715229       -0.1103222596       36.6295091002
  O         4.8866917468       -1.9436846502       35.2480457404
  H         4.7996059943       -0.2365667217       18.3183973956
  H         3.8012088005        0.2482461108       16.9553412372
  C         2.6779469391       -0.1204960201       18.7296491729
  H        14.8678343126        0.7387113205       22.4013327693
  H        14.8760617378        1.7200864188       20.9659628112
  C        15.8994451464        2.5836982079       22.6914907236
  C        10.7929684772        8.3722595779       13.6471623832
  S         3.7949310868        2.2433792699       37.9005852683
  C         4.3610946873       -0.9054017871       37.9482249751
  H         2.9118680301        0.0338541763       19.8307757247
  H         1.7784261254        0.4412850189       18.6018685577
  C         2.3578480778       -1.5349095251       18.4805992971
  H        15.5334865081        2.8816520525       23.6737596827
  H        16.0761552406        3.4296127059       22.0969505608
  C        17.2173040290        1.8720572992       22.8344771215
  H        10.5858614176        9.4440786955       13.7901521066
  C        11.1813839643        7.9968682455       12.3514462546
  H         3.7205780515       -0.5164813449       38.7355415085
  H         3.9418402400       -1.8800674132       37.6883194797
  C         5.6932454586       -1.1375894653       38.5439397218
  H         1.3577011833       -1.6141821045       18.8495901315
  H         2.9273733468       -2.2673898561       19.0800531001
  C         2.3669572400       -1.9994327170       16.9774152663
  H        17.0715465741        0.9709600737       22.2732136906
  H        18.0804950477        2.3613097910       22.3864385486
  C        17.4730167541        1.6856469111       24.2785449578
  S        11.5334016791        6.3615208378       11.7919168154
  C        11.4705553380        9.0381016902       11.3751193823
  H         6.4682916351       -0.9119457598       37.8699785446
  H         5.8123839633       -0.4583793187       39.4163097238
  H         5.9315871683       -2.1901104862       38.7636336440
  H         3.2867325645       -2.4705823377       16.5842848426
  H         2.0125165016       -1.1697288578       16.2985542630
  H         1.7198781653       -2.9057922233       17.0243859056
  H        17.2304318563        2.5975838645       24.8851892148
  H        18.5223321458        1.3756732443       24.4135112403
  H        16.7337493165        0.9989255688       24.6496442017
  C        12.0137332935        7.0870844712       10.3155393257
  N        12.0100964454        8.4725046045       10.3234622214
  O        11.0215474575       10.2164615768       11.3922994661
  S        12.7061871544        6.2966438083        8.9403688614
  C        12.3080202413        9.2028387133        9.0635541911
  H        12.4357420440       10.2671499884        9.1719021677
  H        13.1182741501        8.8343209770        8.4359771127
  C        11.0488057054        9.1417981099        8.1786027348
  H        10.2195093071        8.7226683140        8.7327513518
  H        10.8398995506       10.2505482306        8.1392075315
  H        11.2899645698        8.6582633169        7.2343984684
  H         4.7450051819        1.6456765654       13.0276638489
  C         4.1134212057        2.5358162813       13.0357495728
  H         4.7469838318        3.3537892944       13.3898871992
  C         3.4984437433        2.8247930505       11.6414074795
  C         3.0549062905        2.4432320354       14.1681447159
  C         4.5932537436        2.9675738573       10.6211942514
  H         2.7416304977        3.6924725271       11.5682942211
  H         2.8547337758        2.0412017080       11.3134111929
  H         2.1666631470        1.9798513982       13.8629980532
  H         2.7131320336        3.4348616656       14.4265291348
  H         3.4825206500        1.8724649948       15.0082007927
  C         5.0632411389        1.6296166783        9.9688195043
  H         4.2152055240        3.6151776595        9.8109644664
  H         5.4359453316        3.5013171469       11.0847423578
  C         5.5527046013        1.9001633156        8.5393272666
  H         4.2167522529        0.9301390706        9.9395272335
  H         5.7167825271        1.0864759067       10.6710817003
  C         6.7817725364        2.6757622816        8.4487539311
  H         4.6761430872        2.2731153116        7.9889186645
  H         5.7258401788        0.9090288448        8.0686577223
  C         8.0122952901        2.0340640308        9.1288570237
  H         7.0487371809        2.8839897054        7.4304126128
  H         6.5077198604        3.6670595523        8.8961742504
  C         9.1394745606        3.0675173405        9.2423256664
  H         8.4458460023        1.1934165410        8.5579972112
  H         7.6595358068        1.7608946014       10.1465976915
  C         8.6468861605        4.4283374453        9.8967893480
  C         9.5269881394        3.7761968975        7.9856634119
  C        10.2788696659        2.3668347382        9.9781567172
  C         8.7948475726        5.5168594255        9.0566947056
  C         8.1317546554        4.8358010362       11.1358568634
  C         9.3537353073        5.0958296105        7.8100445051
  C        10.0370431952        3.1166547929        6.8700535874
  H         9.7710111902        1.8505748881       10.7627740464
  H        10.8155481117        1.7030292890        9.3127154092
  C        11.1182911839        3.3871338856       10.6706030622
  S         8.4030352381        7.0740335846        9.8615854588
  C         7.9372915304        6.1757368947       11.2818557131
  H         7.8489454391        4.1236201507       11.8836064377
  C         9.6684352934        5.7615319725        6.6701305979
  H        10.2292870359        2.0669440260        6.9931449858
  C        10.2851252548        3.8068279581        5.7321490075
  H        10.6007126497        4.0512822660       11.3331373383
  H        11.3363234725        4.1099612650        9.8998987455
  C        12.2802096750        2.7616138488       11.4779774551
  C         7.4060319530        6.8234164552       12.5579272796
  C        10.2272105276        5.1602296922        5.5783937718
  H         9.6614464773        6.8200089119        6.6269760494
  C        10.7206123044        3.4141358047        4.4627604225
  H        12.9461268009        3.5058043120       11.8156132549
  H        12.8815792323        2.2051050299       10.7492661828
  C        12.0006161444        1.8373625611       12.6756197370
  C         7.4376267590        8.1897868094       12.8381131417
  C         7.0717949579        5.8923623839       13.6971865572
  C        10.7122969545        5.8571716880        4.3097822789
  C        10.9730690078        4.5220922656        3.6235192370
  S        11.1654156222        1.9396350309        3.7889217018
  H        11.1483012701        1.1861900346       12.5777324421
  H        12.9303036037        1.2527081930       12.7505110388
  C        11.9246656677        2.6071449867       14.0284800614
  N         7.7181810162        9.1739489564       11.8547945496
  C         7.2241808545        8.6984896648       14.0920249772
  C         6.8428722621        6.4380914321       14.9247087867
  H         7.0019991081        4.8102105010       13.6351847159
  C        12.0249447227        6.5998068153        4.5222660426
  C         9.5882562179        6.7748540952        3.6798958644
  C        11.1896853338        4.1218779922        2.3032596856
  C        11.3577048177        2.7256695793        2.2233741226
  H        10.9326989100        3.1456907621       14.0856533581
  H        12.5316543758        3.4739384584       13.9502110356
  C        12.0769023508        1.7858958805       15.3116693242
  S         7.9664857668       10.5666684366       12.6661265571
  N         7.3792010409       10.0751877677       14.1195733377
  C         6.9408865550        7.8729340671       15.2315314779
  H         6.5946833007        5.7585783814       15.7280019996
  H        11.8193433213        7.3095548001        5.3974759636
  H        12.2455623113        7.1926869355        3.6206531389
  C        13.2891231261        5.7154136634        4.7503417573
  H         9.3055617590        7.5805657827        4.2952030932
  H         9.9490777816        7.2468505841        2.8177310901
  C         8.3744644269        6.0040152359        3.1596513579
  H        11.2923665553        4.8326272235        1.5381211132
  C        11.7389096461        1.9216390211        0.9644607876
  H        11.1436520223        1.7703573412       15.8369619468
  H        12.2526038404        0.6995633073       15.1475483143
  C        13.2657303159        2.2418158691       16.1298227591
  C         6.8195507316        8.5028826044       16.5101869345
  H        13.1891775654        5.0116023812        5.6178295664
  H        13.5729949397        5.0929900968        3.8439416780
  C        14.4365890695        6.6468469342        5.1183325715
  H         7.8118626888        5.8159165918        4.0481745993
  H         8.6966362442        5.0169476868        2.7936198662
  C         7.6383793213        6.6332597847        1.9767495862
  C        11.7769332704        0.4950138790        0.8553888248
  C        12.0343474552        2.6188931827       -0.3553557723
  H        13.9566524726        2.8735722491       15.5810907292
  H        13.7728143528        1.3186961638       16.3797533690
  C        12.9141504297        3.0515933819       17.4096325634
  H         7.0095991119        9.5560448814       16.4554494215
  C         6.5699238384        8.0168823004       17.7933885037
  H        14.1422313719        7.5991071017        5.5948280433
  H        15.1112191899        6.9328297752        4.2875696472
  C        15.2829178293        6.0504571254        6.2398373801
  H         7.7481600207        7.6987217423        2.0174299599
  H         8.1279418351        6.3725054766        1.0168519934
  C         6.0820554801        6.4161742350        1.7297157886
  N        11.4141626269       -0.3156163499        1.9081565470
  C        11.9832839054       -0.1616398798       -0.3129953006
  C        12.3235989656        1.9172559574       -1.5241979922
  H        11.9221252374        3.6886655866       -0.4740053349
  H        12.5382882492        2.4459834431       18.2341775033
  H        12.1951245845        3.7851685252       17.0040606832
  H        13.8560256603        3.5020685528       17.6849387787
  S         6.2467877413        6.3850913218       18.2700986182
  C         6.4885334469        9.0320564629       18.9021217886
  H        15.1232634044        6.5110658918        7.1981869009
  H        15.0768047497        4.9235555466        6.3648168666
  C        16.7886557886        6.1013060041        6.0860927453
  H         5.8504206251        5.3594736675        1.8446047022
  H         5.9637399302        6.6364879834        0.6405931870
  C         5.2254300965        7.2050987171        2.6476171270
  S        11.5553007004       -1.8218152728        1.3683025873
  N        11.7197111740       -1.5140050943       -0.2141440787
  C        12.3139457411        0.4664777390       -1.5194758616
  H        12.3964447656        2.4618324517       -2.4519364235
  C         6.0580215894        7.0701604567       19.8956447291
  N         6.1581041299        8.4264330062       20.0591131676
  O         6.6902462344       10.2373992530       18.6843246719
  H        17.0718114251        5.7771368546        5.0369151034
  H        17.2222895619        7.0879348105        6.2115872931
  C        17.6475447641        5.1621915499        6.9620265713
  H         4.3455272839        6.6609305427        2.8985842816
  H         5.6824558216        7.2765778724        3.5580159515
  C         4.9805653090        8.5728216031        2.0119486860
  C        12.6578356715       -0.3754054304       -2.7081210552
  S         5.5491605963        6.1373314970       21.3210040694
  C         6.1661317547        9.1993193161       21.3353871125
  H        16.8553702151        4.7653490398        7.6624181152
  H        18.0385518761        4.2999446453        6.4265016982
  C        18.8349479412        5.8349840282        7.7550876284
  H         5.7580196506        8.6044693377        1.2447388872
  H         5.1760864029        9.3334907881        2.6910199207
  C         3.6823278198        8.5912950896        1.2205589805
  H        12.4393187624       -1.4435862689       -2.6423122632
  C        13.2309225422       -0.1478745468       -3.9231598267
  H         5.3365363797        8.7722647637       21.8879498763
  H         5.9046422192       10.1797929470       21.0326517325
  C         7.4724989547        9.1132632650       22.0212615224
  H        18.9381102343        5.4757913428        8.7546408169
  H        18.6651943092        6.9937124000        7.8753395596
  C        20.0770677294        5.7130704517        7.0142191178
  H         3.8549113394        7.9907918860        0.3415508390
  H         2.8406853905        8.0652818288        1.7147548854
  C         3.1805665629        9.8481557862        0.5999908544
  S        13.7924720948        1.4128436105       -4.3806808174
  C        13.3415711171       -1.2114772925       -4.9101054788
  H         7.7520573292        9.9649225855       22.6178467567
  H         8.3686308582        8.9929811320       21.2955770265
  H         7.5044912839        8.0825708580       22.5224253091
  H        20.0687963001        6.4208942343        6.1462182259
  H        20.9314652229        6.0175148576        7.6382785687
  H        20.2325993868        4.6503285901        6.6977586505
  H         2.1793104205        9.7923293253        0.2827939307
  H         3.1780732324       10.7339134689        1.2189475615
  H         3.7661721920       10.0743984757       -0.2821030527
  C        14.0330414961        0.7011924090       -5.9934718206
  N        13.7756296535       -0.6287824063       -6.0666292579
  O        13.0002602120       -2.3765804656       -4.7362470524
  S        14.4513890881        1.5519274750       -7.4051778216
  C        14.1066789722       -1.3917848424       -7.2632471829
  H        14.3712775941       -2.4198076363       -7.0113549322
  H        14.9025886641       -0.9928182538       -7.9260588225
  C        12.7955965187       -1.5238176794       -8.0744881939
  H        12.2447592665       -2.2860290333       -7.5825363912
  H        13.1535922527       -1.8834591777       -9.0924692313
  H        12.3023645987       -0.5493478495       -8.2597238802
