352
 i =    62100, time =    31050.000, E =        98.4939952538
  H        12.2508629117        4.7109221875       32.4268443961
  C        11.2448179158        5.0342929313       32.2619858801
  H        10.6139048069        4.1144300491       32.1517672061
  C        11.3201154333        5.8798784543       30.9438871209
  C        10.7859122130        5.8621698075       33.4779400575
  C        10.9025502278        5.1430492655       29.6919905559
  H        10.8592498699        6.8897934139       31.0186433738
  H        12.3957293231        6.0161036179       30.8308359132
  H        10.8833063873        5.3257257555       34.4632745753
  H        11.3522006234        6.7866125261       33.4465150331
  H         9.7404169169        6.0827961135       33.4352424947
  C        10.3437630297        6.1745151912       28.6438537553
  H        10.1525720019        4.3307341928       29.9780078447
  H        11.7240677871        4.5204773997       29.4093491066
  C        10.6691699610        5.8470905158       27.1633698854
  H         9.2587941575        6.0325888053       28.5753200376
  H        10.5517555505        7.2018229424       28.9606881617
  C         9.5757392206        5.1943669882       26.4385552142
  H        11.6069734829        5.3066582561       27.0586857591
  H        10.8916754420        6.7996326676       26.6332953502
  C         8.4461947524        6.0714316177       25.9946945085
  H        10.0617179453        4.7528963766       25.6178281214
  H         9.1660176980        4.3810874854       27.0209731024
  C         7.2189080477        5.4147695851       25.2760245351
  H         8.0285078730        6.4007088946       26.9447946048
  H         8.7562526554        6.9734866757       25.4779011725
  C         6.8105420431        4.0784147549       26.0058767737
  C         7.6818078967        4.6678627813       24.0762677464
  C         5.9561337181        6.1782702108       25.0583051126
  C         7.0520494162        2.9906685380       25.2119093921
  C         6.3563548252        3.6496780922       27.3164556422
  C         7.6100102517        3.3171510583       23.9724638255
  C         8.1385504850        5.2875760918       22.8724593416
  H         6.3008177027        7.0447201311       24.4814222492
  H         5.7729794369        6.5213403838       26.0901558050
  C         4.7380032659        5.5250768619       24.4829363468
  S         6.5519047543        1.4662654373       25.9105272544
  C         6.2188273976        2.3142341893       27.3789747034
  H         6.2972193466        4.3199962681       28.1814910679
  C         8.0311948853        2.7450476655       22.8221549350
  H         8.2390852895        6.3115239042       22.7873158681
  C         8.5847426149        4.6793166860       21.7034039736
  H         5.0708078344        5.2712032848       23.4807786121
  H         4.4206843187        4.5907592279       24.9466417522
  C         3.4713110576        6.4184381028       24.4825891099
  C         5.6487712173        1.6473595925       28.5674687290
  C         8.5489619569        3.3457785491       21.6379238507
  H         7.8566720069        1.7311345146       22.8231831612
  C         9.0158688471        5.0187128977       20.4300530383
  H         2.7949119770        5.9363018274       23.7908343389
  H         3.5362693545        7.3266770123       23.9301537416
  C         2.9165656758        6.6610850841       25.8871093663
  C         5.5726809968        0.2481373527       28.8861547683
  C         5.1070880162        2.5513573966       29.5938247119
  C         8.9554264837        2.6321304707       20.3525930856
  C         9.2439106678        3.9437889818       19.6340708293
  S         9.2192282817        6.4533845324       19.6023057008
  H         2.4022381418        7.6610312469       25.8327723514
  H         3.7387585841        6.5502015242       26.5162623388
  C         1.9730034787        5.5039713444       26.3220714510
  N         6.0222607521       -0.8049594342       28.0327259723
  C         5.1361921821       -0.2479820245       30.0891906260
  C         4.7732171493        2.0316673714       30.8917866718
  H         5.0069487305        3.6069031900       29.5292555176
  C         7.8398035868        1.7460266776       19.8130391467
  C        10.1735653281        1.6991312248       20.5075233958
  C         9.7465916002        4.2770406839       18.3665312602
  C         9.6761601523        5.6119618664       18.1714532102
  H         1.2406586542        5.4104674221       25.5559897362
  H         2.5101696030        4.5488063116       26.4018674753
  C         1.3870456570        5.8142448886       27.6627474133
  S         5.9234851334       -2.2209715719       28.8326168871
  N         5.2436302048       -1.6730043895       30.2225211052
  C         4.8610649383        0.5633418371       31.2391713835
  H         4.3936597324        2.6682318931       31.6517488858
  H         7.6727521147        1.0076179271       20.6253362248
  H         8.1626801460        1.3167936179       18.8905523595
  C         6.4920273449        2.4912718343       19.5260497209
  H        10.4232879249        1.2271371451       19.5657856020
  H         9.9683861552        1.0375107867       21.3060795736
  C        11.4354488859        2.5147856686       20.8529823034
  H         9.8482472218        3.4824143457       17.7127858839
  C         9.8650861730        6.3773209282       16.8939740492
  H         0.5325561574        5.2154406027       27.7713538993
  H         0.9847326520        6.7929875853       27.8478797950
  C         2.2816732404        5.4180872555       28.8200591019
  C         4.5313352602       -0.0505014095       32.5630569615
  H         6.5930655267        3.5356006953       19.1785727888
  H         6.0703026724        2.4816956411       20.5564810177
  C         5.6092793631        1.8523575451       18.4169302458
  H        11.2085257526        3.3823781833       21.5408448655
  H        11.8358856189        3.0117884274       20.0154833111
  C        12.5645304708        1.6988819052       21.4758097128
  C         9.7946769332        7.7287173578       16.6989421734
  C        10.1638277403        5.6268947116       15.6478698189
  H         2.7699331955        4.4794819093       28.6091618930
  H         3.1086139247        6.0599116777       29.0344580761
  C         1.5247977191        5.2730309918       30.1752603435
  H         4.3735779451       -1.1951978791       32.5505394674
  C         4.3504511923        0.5512884402       33.8496263535
  H         5.7506018367        0.8359406350       18.4449624603
  H         5.8080501276        2.1411811914       17.3652281148
  C         4.1830697965        2.2014965825       18.8024684840
  H        12.3223215331        1.3047067408       22.4614516691
  H        12.8454224852        0.8293004465       20.8340036905
  C        13.7272620824        2.6472903475       21.6599849345
  N         9.6382693288        8.7277081066       17.7036398549
  C        10.2261759460        8.3752284225       15.5223290844
  C        10.4486220582        6.2187981628       14.3936989969
  H        10.3515355297        4.5586376494       15.6562217835
  H         0.6472746301        4.6940705549       30.1114640461
  H         2.0915979443        4.6827157095       30.9048746742
  H         1.3457814557        6.2829281625       30.6247752590
  S         4.3847367775        2.1495952597       34.3490749483
  C         4.2596494331       -0.4642482656       34.9171497466
  H         4.1086663802        2.6951843601       19.7253313056
  H         3.8981020864        2.8701389238       17.9794763158
  C         3.2858069427        0.9114464793       18.8924844505
  H        13.4739521223        3.6664103070       21.5327628316
  H        14.5346231147        2.5040560312       20.9803547007
  C        14.3311394595        2.5858335612       23.0963526022
  S         9.6334835379       10.2414224481       17.0769321898
  N        10.1419389242        9.7588113546       15.6033422367
  C        10.5338065643        7.6925846960       14.3461299998
  H        10.6781835839        5.5169391824       13.5968288270
  C         4.2134654064        1.4756827070       35.9422073967
  N         4.1338553903        0.1415986720       36.0891983633
  O         4.3874513906       -1.6398335644       34.7787637891
  H         2.2594474780        1.0313438418       19.2355022383
  H         3.6757753489        0.1576815211       19.6176821421
  C         3.1184246058        0.3343363148       17.4598416163
  H        13.4883086679        2.8628278853       23.7233608039
  H        14.5063453588        1.5538150835       23.3062278625
  C        15.5966131632        3.3983194599       23.3773988561
  C        10.9892943777        8.4887876720       13.2465045759
  S         3.9147730927        2.4667595868       37.3495511510
  C         4.2726494285       -0.6601628226       37.3041010776
  H         2.6259565442        0.9551907601       16.6694549802
  H         4.0522735269        0.0910084055       17.0922237497
  C         2.5276549170       -1.0867046640       17.4876351091
  H        15.8218722389        3.4490573810       24.4555257278
  H        15.4894992784        4.3582739307       23.0369587061
  C        16.8618371560        2.7545767900       22.7339585501
  H        10.8360418601        9.5617790927       13.4031802060
  C        11.4186937942        8.1818523455       11.9281842845
  H         3.9065487725       -0.1282636993       38.1764083490
  H         3.6364756237       -1.5396275350       37.2990765866
  C         5.7422869940       -1.0171202051       37.5676847432
  H         3.1344726861       -1.7840281702       18.0733197486
  H         2.5214089294       -1.5958710569       16.5245271231
  C         1.1115027881       -1.2061252315       18.0128794688
  H        16.8576562730        2.4902038311       21.6802715664
  H        17.6245832460        3.5436818186       22.7953438595
  C        17.4504814980        1.6393941766       23.5407886355
  S        12.0439389332        6.6075301731       11.3957708548
  C        11.6299792182        9.2692838928       11.0004944320
  H         6.0806593134       -1.8270363583       36.8414461802
  H         6.3748318030       -0.1496137915       37.3605065130
  H         5.9299537111       -1.2936629214       38.6295198303
  H         0.5809381371       -1.9691312898       17.4535424790
  H         0.5464732351       -0.2883705530       17.8332130096
  H         1.0583065289       -1.3952624359       19.1191273740
  H        16.6350830544        0.9490263912       23.8732174596
  H        17.8714754505        2.0433521737       24.4150757539
  H        18.2133817164        1.2157981231       22.8993656253
  C        12.4233732098        7.4188234981        9.8696696571
  N        12.2283230098        8.7715800066        9.8874866870
  O        11.4860817824       10.4481072282       11.2763429388
  S        13.0074612897        6.5836717585        8.3866706103
  C        12.3345993318        9.5567598604        8.7096216638
  H        12.7013781202       10.5882720713        8.8628683185
  H        13.0930149291        9.1517374937        7.9780963757
  C        10.9312759586        9.3358220158        8.0844254273
  H        10.9680928978        9.6372286320        7.0064236170
  H        10.6819977816        8.2747882332        7.9824569513
  H        10.1571449514        9.9189218721        8.5417530817
  H         4.4673548554        1.0936583387       12.2001871563
  C         4.0047083669        2.0176846974       12.5610323155
  H         4.7881049087        2.7159043275       12.6434114890
  C         2.9905285430        2.3636473092       11.4897258069
  C         3.3401585610        1.8439018638       13.8952092734
  C         3.6163949126        2.8727809364       10.1751882200
  H         2.3528415330        3.1910042066       11.8225866244
  H         2.3156573182        1.5189872298       11.2206983166
  H         4.1381505770        1.9677028587       14.6140060966
  H         2.8680023009        0.8162514055       13.9893538399
  H         2.4950505557        2.5751677125       14.0643057005
  C         4.5407407744        1.8030354657        9.4662127109
  H         2.7539034630        3.1828263061        9.6330678660
  H         4.1932209563        3.8096546400       10.4045334798
  C         5.2324574710        2.2174207769        8.1523866084
  H         3.9170213366        1.0163877354        9.1020995780
  H         5.3558674071        1.5064183341       10.1367548872
  C         6.5282912834        2.9384687162        8.5125030902
  H         4.6527077866        2.6974445237        7.4374264612
  H         5.5797717392        1.3039073537        7.6551293624
  C         7.7431107024        2.0609511221        8.8558007894
  H         6.7873170903        3.5485002361        7.6807726768
  H         6.2134522348        3.5840053633        9.3372131542
  C         9.0236865491        2.8887681887        8.9293404556
  H         7.9338043695        1.3512097748        8.1125452951
  H         7.5840002012        1.5755603995        9.7751085778
  C         8.8078088918        4.1663543965        9.5998674967
  C         9.4448875144        3.5465687098        7.7064487200
  C        10.1676944778        2.1448813017        9.6287316700
  C         8.9595924443        5.3033724849        8.7768643480
  C         8.3913546901        4.6416954360       10.8489879421
  C         9.3828422162        4.9107495789        7.5361211287
  C         9.9845656224        2.9539484028        6.5860353730
  H         9.8057647778        1.6144726578       10.5391966310
  H        10.4660532758        1.3449978171        8.8988590623
  C        11.4653459319        2.9621863572       10.0433725359
  S         8.6258237606        6.7558981623        9.4547979069
  C         8.2370281595        5.9904988609       10.9230048290
  H         8.0697155765        3.9717297951       11.6032129047
  C         9.8152394772        5.5573627322        6.4192795711
  H         9.9642988717        1.9183615820        6.4932780505
  C        10.3381899188        3.5815802449        5.4200512396
  H        11.3760225920        3.9849108696       10.2351393689
  H        12.1170139578        2.7621076418        9.2151554759
  C        12.2687941666        2.4603632797       11.2051810748
  C         7.6357529970        6.7024681638       12.1827675098
  C        10.3532481232        4.9255462691        5.3287822163
  H         9.8025527100        6.6777584735        6.4983202139
  C        10.7215919450        3.1215721884        4.2062965853
  H        13.0335590274        3.2514447701       11.2534363936
  H        12.7258514533        1.5878695797       10.9103683332
  C        11.5660337860        2.3347901997       12.6039955524
  C         7.6817574730        8.0854694552       12.3905299253
  C         7.0598180027        5.9241934725       13.2675261093
  C        10.8695739139        5.5786897861        4.1074455906
  C        11.1364762918        4.2056016228        3.4440796927
  S        10.8843485240        1.5963581774        3.3854088256
  H        11.2803814642        3.2511963728       13.0074825744
  H        10.6639150396        1.7250076251       12.4499891291
  C        12.4877050374        1.7570697168       13.7019345210
  N         8.0855630132        9.0652149322       11.4832412741
  C         7.4248360776        8.6452832292       13.6038479626
  C         6.6948644632        6.4529308768       14.4825632152
  H         6.9525238866        4.8538214762       13.1037551199
  C        12.1985156530        6.1483658056        4.3707799600
  C         9.7866400445        6.4923362521        3.4393813408
  C        11.5632562054        3.7933253400        2.1567568737
  C        11.4452597022        2.4133540867        2.0066469558
  H        13.5346363924        1.9811679472       13.4964118497
  H        12.3093162799        0.5819866394       13.8309056890
  C        12.0954561311        2.3657030039       15.0354023982
  S         8.3203180939       10.4444697701       12.2436524062
  N         7.6648084449        9.9905297383       13.6406862280
  C         6.8939292342        7.9043858374       14.6874479367
  H         6.1843211744        5.7656975689       15.2030186384
  H        11.9006277511        6.7767140597        5.2550858440
  H        12.6026904642        6.7449048841        3.5159072428
  C        13.2930654701        5.1859371280        4.7437483664
  H         9.5579530202        7.2795648778        4.2020406803
  H        10.3251662496        7.0518210997        2.6572525351
  C         8.4907388438        5.8710274741        3.0266785168
  H        11.8842958994        4.5192596255        1.4320810493
  C        11.8051789394        1.5881037374        0.7599531728
  H        12.2062238683        3.4593214059       14.8992971673
  H        11.0773083745        2.1376088946       15.3068966220
  C        12.9268994222        1.7848634738       16.1492156299
  C         6.6396345082        8.5346722949       15.9398521413
  H        13.0138102903        4.5295246700        5.6503384448
  H        13.6233953539        4.6154217867        3.8984823045
  C        14.5839257600        5.8725038267        5.0844981922
  H         8.0998855952        5.2626999628        3.8166995391
  H         8.7360292750        5.2435801493        2.1428562098
  C         7.5008589274        6.8342540467        2.5491948565
  C        11.8480790272        0.1751973638        0.6212047367
  C        11.8484490929        2.3609808231       -0.5393362476
  H        13.9508617607        1.9309438491       16.1193160446
  H        12.8074910659        0.7739984556       16.3356299977
  C        12.5162814603        2.5589751259       17.4625855177
  H         6.7393508161        9.6246654164       15.8976267981
  C         6.3976516388        7.9642794526       17.1907778947
  H        14.4286053547        6.6505265620        5.8543360060
  H        15.0236237162        6.4147083998        4.2132056061
  C        15.6397419662        5.0059176332        5.7167219023
  H         7.2530105335        7.5749931563        3.3306440858
  H         7.8212936707        7.4005338795        1.6711254369
  C         6.2192186806        5.9888308525        2.2703022609
  N        11.4058251066       -0.6849600464        1.6268132862
  C        12.1092203964       -0.5114754893       -0.5461357709
  C        11.9800406420        1.6715425111       -1.7244561075
  H        11.5425629008        3.3628318129       -0.5205871290
  H        12.4748131438        3.5834713791       17.3113584983
  H        13.2260730589        2.4206334972       18.2723172789
  H        11.5989614927        2.0548772551       17.7565981906
  S         6.1672264703        6.3184276068       17.6931267338
  C         6.4326504208        8.9527259847       18.3111011197
  H        15.1413724050        4.3587014439        6.3880222387
  H        16.0788993793        4.3097081500        4.9888846117
  C        16.5717730066        5.8648992962        6.5996856284
  H         5.8508212024        5.5740823250        3.2037789330
  H         6.3672999451        5.1366452035        1.6558946581
  C         5.0758443530        6.8215075462        1.5858575626
  S        11.3851379210       -2.1956306005        1.1076482755
  N        11.9714201331       -1.8435830312       -0.3991197657
  C        12.3286007795        0.1537784763       -1.7471547245
  H        11.8631786805        2.2838955206       -2.6408611978
  C         6.0528010942        6.9908145568       19.3702729335
  N         6.0507541638        8.3243307832       19.4328709093
  O         6.6669013555       10.1528511365       18.1500925984
  H        16.9438411414        6.6597609946        5.9474576536
  H        15.9769784274        6.3490653713        7.3323705449
  C        17.7749542584        5.2005827008        7.2211726756
  H         5.5121722919        7.2235215456        0.6309273719
  H         4.2603634922        6.1550636070        1.2399485758
  C         4.6465300380        7.9974490061        2.4349756420
  C        12.5140040719       -0.5702705652       -2.9538836244
  S         5.4570980246        6.1016743920       20.7643593898
  C         5.8768402757        9.0821461458       20.6442741226
  H        17.5702579437        5.0056015431        8.2929910067
  H        17.8404350443        4.2287662863        6.9137003411
  C        19.0963290525        5.9671608703        7.1816646998
  H         5.4631045863        8.6834966558        2.5135921400
  H         4.3804119746        7.6233866623        3.4058773393
  C         3.5306239697        8.7727488086        1.7277284321
  H        12.2555074873       -1.6448009901       -2.8805613102
  C        12.7786196401       -0.1737382996       -4.2223288583
  H         5.1865316283        8.6817018845       21.3322687778
  H         5.5351526527       10.0730455940       20.3336408258
  C         7.1921775459        9.2262359261       21.4195283444
  H        19.9039015914        5.3603126163        7.4158718726
  H        19.0485744003        6.7811112310        7.9690836755
  C        19.3961003461        6.5361751718        5.7259554694
  H         2.6695201522        8.1200697106        1.5657153934
  H         3.1982638757        9.4677480655        2.5570361585
  C         3.8666961989        9.5986936806        0.4493617487
  S        13.3339305113        1.4208139799       -4.6929270363
  C        12.7726249973       -1.2105812107       -5.3014019402
  H         8.1199369783        8.9811566575       20.7795659726
  H         7.1926703311        8.8114714033       22.3581553046
  H         7.3924196125       10.3140836082       21.5577251414
  H        20.4779477674        6.6786095732        5.6971938424
  H        19.1701227893        5.7071842318        4.9765470182
  H        18.8736850207        7.4860812879        5.5155312709
  H         3.2142669003       10.4679232453        0.2725332910
  H         4.8672005259       10.0907471438        0.6478963740
  H         3.8503032658        8.9880749980       -0.4892033984
  C        13.7132868322        0.6354121114       -6.2173615568
  N        13.3503184725       -0.6383754510       -6.3859816973
  O        12.5263492662       -2.3750557392       -5.2354805658
  S        14.5993357563        1.4631773864       -7.5274751842
  C        13.6022324785       -1.4620272689       -7.5988346901
  H        13.9389458020       -2.4365328888       -7.3483111192
  H        14.3252733645       -1.1105473813       -8.3551672464
  C        12.2396218558       -1.5435287434       -8.3739468912
  H        11.3510595139       -1.2500260148       -7.7590929067
  H        11.9505380246       -2.5565324687       -8.6993944071
  H        12.1936067484       -0.9389454585       -9.3239714755
