352
 i =   113300, time =    56650.000, E =        98.8734134371
  H         9.9106911163        4.5487159480       31.3190709208
  C        10.2789654473        5.4925608306       31.8284544864
  H         9.5353655429        6.2782885249       31.7480143492
  C        11.5785953165        5.9309326221       31.1196494324
  C        10.5197083865        5.2564549614       33.2975794849
  C        11.3213634456        6.2042498829       29.6239754993
  H        11.9389913479        6.8901082957       31.5315613116
  H        12.4512890185        5.2112715744       31.1899020478
  H        10.1634222950        6.0616842856       33.9276735184
  H        10.0480807985        4.4140754078       33.6465484263
  H        11.5949842728        5.1181086658       33.5702055046
  C        10.2713881662        5.3504810711       28.8041377599
  H        12.2643558912        6.2651093530       29.0648864189
  H        10.8906502957        7.1848916177       29.6154408333
  C        10.2663591082        5.8103866859       27.3410722128
  H        10.4517177005        4.3167786586       28.9051029916
  H         9.2831407470        5.5273681670       29.2759047971
  C         9.2875503896        5.1141666458       26.4801337162
  H        11.2654930560        5.6656740591       26.9624589614
  H        10.0610090759        6.9006752899       27.2978913282
  C         8.0602729902        5.9983148669       26.1478963531
  H         9.7787293969        4.7997157633       25.5190976100
  H         9.0972150520        4.1043860395       26.9572608395
  C         6.8671647343        5.2773177887       25.3945161407
  H         7.5949509153        6.3954107295       27.0005508568
  H         8.4786043799        6.8701681612       25.5165571214
  C         6.4893422114        3.8253977605       26.0119871998
  C         7.2809149242        4.5395605176       24.0952237397
  C         5.5912368644        6.1378742922       25.3769006893
  C         6.9082955538        2.7562599863       25.3048002264
  C         5.9978055269        3.3845501028       27.2698005820
  C         7.3067505866        3.2012069219       24.0248673025
  C         7.7098076713        5.1900615167       22.9461660802
  H         5.7723536818        7.0070745266       24.7346935192
  H         5.5306515588        6.6403600929       26.3660412482
  C         4.3619254278        5.4394565412       24.7046975993
  S         6.7291239253        1.2596153019       26.1279008151
  C         5.9634431141        2.0019590202       27.4565489757
  H         5.6431262295        4.0704227024       28.0545774155
  C         7.8433619947        2.6187032943       22.9342931289
  H         7.7290732785        6.2723649828       22.9903652078
  C         8.1418978643        4.5669090409       21.8258390312
  H         4.7058547713        5.0949766551       23.7316132887
  H         4.0956932214        4.6148423763       25.2963433931
  C         3.1811436537        6.4549505725       24.6894026548
  C         5.5466700046        1.3192446088       28.7424597155
  C         8.3035590293        3.2189359081       21.7255992198
  H         7.9373585829        1.5225837606       22.8776324933
  C         8.6192209726        4.9642734383       20.5605756879
  H         2.4990705524        6.1335375959       23.9031421430
  H         3.5022836759        7.4554074992       24.3735353790
  C         2.5684753685        6.5287591540       26.0915303081
  C         5.5557965901       -0.0525561480       28.9278995590
  C         5.0952337027        2.1201558462       29.9057391977
  C         8.7934395078        2.5655740673       20.4830220170
  C         9.1035962672        3.9102164434       19.8637042110
  S         8.7354653518        6.4162981309       19.6894714065
  H         1.9133083951        7.4156748791       26.1147751647
  H         3.3711347460        6.7254024099       26.7856403168
  C         1.7346206454        5.2643194186       26.4662376220
  N         5.9836149516       -0.9378482591       27.9561783736
  C         5.2532533361       -0.5863520810       30.1869772593
  C         4.7792990399        1.5171958627       31.1209990371
  H         5.1010298634        3.1826737828       29.9634502785
  C         7.7351886512        1.7941081695       19.6576262673
  C        10.0875653413        1.7371446510       20.6265181713
  C         9.6496702749        4.2867022304       18.6268401029
  C         9.4443489473        5.6058218868       18.3656256238
  H         0.9452756545        4.9852035352       25.7821098597
  H         2.3259114583        4.3955041307       26.3935859322
  C         0.9371512893        5.4285770433       27.8594539132
  S         5.8470869355       -2.4593928962       28.5953886028
  N         5.3802766672       -2.0134577537       30.1267406032
  C         4.8221784308        0.0833504339       31.3322238832
  H         4.6121373016        2.2616464472       31.9370579623
  H         7.2489984837        1.1750716443       20.4359718449
  H         8.2442961224        1.2130002516       18.8721967016
  C         6.6228547400        2.6193990772       19.0669150857
  H        10.2867114694        1.4390827512       19.6113760647
  H        10.0560467091        0.8539796664       21.2635105652
  C        11.2313466594        2.6362750636       21.1755143010
  H        10.0121687483        3.5527482858       17.8658091023
  C         9.8989412912        6.2992918221       17.0846823074
  H         0.1621960914        4.5909250690       27.8886071180
  H         0.3548764163        6.3086632414       27.7277666479
  C         1.6851038343        5.5842039907       29.1360862134
  C         4.6492677237       -0.5839380483       32.6047561662
  H         7.0601947244        3.0981087698       18.2396592535
  H         6.2541448068        3.4640789626       19.7513492969
  C         5.4956086215        1.7248482529       18.6346873109
  H        10.9683671809        3.3060806222       21.9658961868
  H        11.4922743722        3.3753455257       20.3837317708
  C        12.4145182468        1.8270346727       21.5782158200
  C         9.9433044794        7.7098201925       16.8526166892
  C        10.4348050259        5.5352843368       15.9913235287
  H         1.8173412027        6.6660653254       29.2467847296
  H         1.0202184808        5.0909519501       29.8750940397
  C         3.0775809337        4.9691300314       29.2734177586
  H         4.8700532387       -1.6220512157       32.5213417005
  C         4.3183961682       -0.2029885013       33.8607200813
  H         4.8832022692        1.4343060035       19.4634031078
  H         5.8478751037        0.7880751309       18.1947068051
  C         4.5612156728        2.4916298375       17.5847362520
  H        12.1632228626        1.3653325604       22.5723115533
  H        12.6468240903        1.0615787553       20.8919731309
  C        13.6355135376        2.7078540693       21.9217067245
  N         9.5318097307        8.5903317518       17.7905996263
  C        10.3477913006        8.2223173641       15.6197010419
  C        10.6805477864        6.0151038015       14.7273327189
  H        10.6223854711        4.5367324440       16.1920110803
  H         3.2869174690        4.9112591281       30.3306546106
  H         3.1781759688        4.0542771525       28.8016821517
  H         3.8715191962        5.5101132085       28.8168804531
  S         3.8647934324        1.2991945163       34.4487208611
  C         4.2937542301       -1.2457938138       34.9336804523
  H         4.6445671268        3.5920958696       17.6698746734
  H         4.9300469839        2.1530183698       16.6399511133
  C         3.1201606090        2.0981837111       17.5692847961
  H        13.4356367798        3.2687716359       22.8899419055
  H        13.9256438191        3.3467893578       21.0772894619
  C        14.9026708279        1.8651410398       22.1582334622
  S         9.6804350868       10.0833013547       17.1587973590
  N        10.2320890283        9.5953818821       15.7191070382
  C        10.7917518144        7.4795931055       14.5260683478
  H        11.0266946886        5.3496647833       13.9430624119
  C         3.7317035340        0.6413654797       36.0750555344
  N         3.9584643645       -0.7003352270       36.0992562504
  O         4.5927933939       -2.4082088549       34.7936350709
  H         2.4659038747        2.5690277476       16.8019373036
  H         2.6741518481        2.4036426038       18.5252667526
  C         2.8885208268        0.5847353025       17.2209945139
  H        14.6445890735        1.3960538326       23.1132155380
  H        14.9407438647        1.0740608185       21.3922465509
  C        16.1202199671        2.7396128354       22.3035333217
  C        11.2036368003        8.1261367984       13.3252731178
  S         3.1931871766        1.4120816058       37.4671267677
  C         4.2104265740       -1.5283275716       37.3315532507
  H         2.4140867940        0.5816500201       16.2572298233
  H         3.8867519278        0.1191049554       17.1316437225
  C         2.0795660810       -0.2268959924       18.1946354028
  H        15.8675127372        3.6110864453       22.8989282399
  H        16.2982879651        3.1833741666       21.3216818527
  C        17.3619139632        2.0996173528       22.6717891386
  H        11.1144923380        9.2353627508       13.4039626223
  C        11.8067599258        7.7175353625       12.1750013840
  H         3.5076315192       -1.1872340800       38.0616570229
  H         3.9850875693       -2.5997050672       37.1393066947
  C         5.6097804328       -1.2783255149       37.8800232052
  H         1.1241856498        0.1625434590       18.4328504567
  H         2.6271440490       -0.3493027977       19.1173013559
  C         1.9463074240       -1.6374894046       17.7716249291
  H        17.5452471340        1.1519431456       22.1593496355
  H        18.2675104439        2.7113237126       22.4213438593
  C        17.4733888500        1.9661279334       24.1595260996
  S        12.4070514448        6.2191590558       11.8425212332
  C        11.8569771425        8.5605401082       10.9863367899
  H         5.8838410155       -1.8686620275       38.7214955206
  H         6.3129203842       -1.5946020732       37.1131666128
  H         5.8942271413       -0.2124790192       38.0476512975
  H         1.6888651615       -1.7404187145       16.6696432334
  H         1.1221922358       -2.1215660239       18.2563700519
  H         2.9012356439       -2.1527382812       17.8177158192
  H        16.8556549415        1.1220140155       24.5205303325
  H        17.1610160264        2.9190970919       24.6405076833
  H        18.4801216105        1.8864255997       24.4684735006
  C        12.8034739856        6.7620841127       10.2166502238
  N        12.4420901367        7.9945636425        9.9653986573
  O        11.4971798680        9.7233959811       11.0043701456
  S        13.1176476842        5.7194365736        8.8975312228
  C        12.5561850511        8.7503045112        8.7418408970
  H        12.9205987653        9.7375963735        8.8559196235
  H        13.3283697542        8.2907088905        8.1068239868
  C        11.3143462566        8.6550663805        7.9158908268
  H        10.4030996761        8.7693904341        8.5628636256
  H        11.1919828616        9.5616293846        7.2940504114
  H        11.3546891150        7.7685902508        7.3372257760
  H         2.9296880715        3.8282042856       12.3503921301
  C         3.0457665783        2.7104773511       12.4164724289
  H         2.2513008228        2.3040406791       11.8133555155
  C         4.3416376139        2.2672677732       11.7848695755
  C         2.9362695840        2.1515719792       13.8013164055
  C         4.4013839998        2.7782319929       10.3595569244
  H         4.4286210071        1.2045800317       11.8049928443
  H         5.2482890813        2.6648481272       12.3352521021
  H         2.0756121080        2.4782569628       14.3658848752
  H         3.7905109307        2.5136092893       14.3751261556
  H         3.0299085238        1.0885699654       13.9110271531
  C         4.9895362765        1.6594175137        9.4503107080
  H         3.4196360759        3.0685668893       10.0177602329
  H         5.0391281041        3.6333570406       10.3256737183
  C         5.5761745352        2.1532869376        8.1245424365
  H         4.1692728620        0.9342484756        9.2463814850
  H         5.6217083451        0.9577773631        9.9645965014
  C         6.9798876513        2.8486879338        8.3534431569
  H         5.0273656938        2.8361629796        7.5295851835
  H         5.5047965315        1.3659507369        7.3277841289
  C         8.1117680069        2.0140231171        8.9583211635
  H         7.2241521791        3.2435893367        7.3524836508
  H         6.7266004590        3.6473030087        8.9968961482
  C         9.3858636511        2.7152510327        9.2512295927
  H         8.3307412619        1.3470787440        8.1349383600
  H         7.8423393003        1.4638965150        9.8290973751
  C         9.0786820490        4.0317972331        9.9575261804
  C         9.9224080134        3.4563506971        8.0413511805
  C        10.4596283804        1.8928580145        9.9891772695
  C         9.2865326396        5.1706399062        9.1481680125
  C         8.5300823450        4.4548727609       11.1873063172
  C         9.7668601787        4.7856457125        7.9450641103
  C        10.2695395872        2.8468516322        6.8558148481
  H        10.0218073696        1.1336071749       10.6078460103
  H        11.0566165596        1.2788389664        9.2597012478
  C        11.5083853794        2.6875152714       10.6921644584
  S         8.9220946728        6.6897695724        9.7804588336
  C         8.3221195166        5.8002294147       11.2152721236
  H         8.2256289454        3.6557976053       11.8226432185
  C        10.1189532883        5.4360374112        6.7910321209
  H        10.2100362272        1.7715052232        6.8454376820
  C        10.5068279042        3.4554591580        5.6806631315
  H        11.1999191657        3.4055419256       11.3954771596
  H        12.1101024405        3.2732678270       10.0039619909
  C        12.5263397725        1.8888798190       11.4552060428
  C         7.8221132479        6.5336970529       12.3840574060
  C        10.4873735922        4.8184180519        5.5844207904
  H         9.8946760238        6.4612327734        6.8293793261
  C        10.8362851380        3.0337602355        4.4471803526
  H        13.3449512727        2.5648500583       11.6963199556
  H        13.0998913537        1.0549705248       10.8867050372
  C        11.9853359505        1.5132645901       12.7830117306
  C         7.8595688605        7.9209689837       12.6270832589
  C         7.2225246366        5.6739634620       13.4600895192
  C        10.8765844162        5.4621500199        4.3003747531
  C        11.0769860181        4.1005169889        3.6123683049
  S        11.0879837049        1.5450874498        3.6501835793
  H        10.9728619306        1.9186734155       12.9202592444
  H        11.7815340056        0.4291406114       12.7735907256
  C        12.8439990193        1.9828391528       13.9773337840
  N         8.3881993062        8.9295473053       11.8745100308
  C         7.4768951817        8.3801416970       13.8460767580
  C         6.7567363350        6.1419412409       14.6545900667
  H         7.1131345549        4.5930968985       13.2840156081
  C        12.2410720860        6.1549278116        4.5210944265
  C         9.6939817593        6.3091944936        3.6554655847
  C        11.3308741835        3.6641863304        2.2627361705
  C        11.4165673519        2.2899064252        2.1732581618
  H        13.3995855744        2.9083515368       13.8598173410
  H        13.6328658314        1.2353939758       13.9779241057
  C        12.3054551619        1.8569814139       15.3599554400
  S         8.2330150334       10.3742429918       12.6902331264
  N         7.8510650239        9.7253235858       14.1007319766
  C         6.9911807874        7.5981737010       14.9847177567
  H         6.2460185409        5.5013629480       15.3320820724
  H        11.9633599473        6.9162800611        5.2307154334
  H        12.5177698355        6.6721262402        3.6211046955
  C        13.4269276770        5.3058164315        5.0616966069
  H         9.3250844684        7.1258182541        4.3079707866
  H        10.1208741463        6.8288761049        2.7654065884
  C         8.4627143612        5.4156321430        3.2144415487
  H        11.2440420330        4.3702080586        1.4707023579
  C        11.6530026715        1.4189114856        0.9251415941
  H        11.4756990964        2.5662726240       15.5058298416
  H        11.9042540062        0.8881405565       15.4537113120
  C        13.4376914360        1.9603034061       16.4345287524
  C         6.6493136225        8.3265135982       16.2239621705
  H        13.1597488378        4.6895856456        5.9396334236
  H        13.7573318023        4.5328196074        4.3482815227
  C        14.5509219405        6.1615510218        5.4708437442
  H         8.0993919559        5.0430165668        4.1548692398
  H         8.8011116843        4.6032693015        2.5729918731
  C         7.3225705600        6.2444810529        2.6660368863
  C        11.7939512546        0.0342409685        0.8650608441
  C        11.8459873592        2.1047613960       -0.3729468337
  H        14.0849177441        2.8207310076       16.3737605393
  H        14.1794383142        1.1459272506       16.2896331272
  C        12.9303919535        2.1109938271       17.8864035646
  H         6.6533121510        9.3996841170       16.1288277845
  C         6.2948566354        7.9682578148       17.5054279817
  H        14.1043940179        6.9799884290        6.0119858508
  H        14.9971173229        6.6099962917        4.5340939686
  C        15.5646115889        5.3225878059        6.2749017519
  H         6.5499268311        6.4883024032        3.4361721541
  H         7.6319576348        7.2189540515        2.2831979205
  C         6.5399505104        5.4754119986        1.6174123119
  N        11.6180792817       -0.7595558251        1.9235558723
  C        12.1609708222       -0.6614747306       -0.2956654771
  C        12.1449103650        1.3508870926       -1.5058436351
  H        11.6521909700        3.1961155102       -0.4593247969
  H        12.2131806691        2.9487414618       17.7644708683
  H        13.7633301301        2.4817212446       18.5248931830
  H        12.3488528680        1.2604730806       18.2936455968
  S         5.9336891542        6.3729937138       18.0302637196
  C         6.2080180569        9.0463841878       18.5152093299
  H        15.3975543455        5.4285270337        7.3112164212
  H        15.3346057443        4.2627891049        6.1564898108
  C        17.0501547300        5.7166778648        5.8435076122
  H         6.3683906947        4.4756615690        2.0121901526
  H         7.0524668958        5.2583259866        0.6951990987
  C         5.2001701229        6.1043419987        1.2496058721
  S        11.8294281205       -2.3306244739        1.4481933665
  N        12.2364045621       -2.0468412967       -0.1231701599
  C        12.3949717840       -0.0830275964       -1.5538397847
  H        12.0926005964        1.9409356235       -2.3599776085
  C         5.5953688005        7.1454029689       19.6048788872
  N         5.8232635895        8.5038768063       19.6751289237
  O         6.4118225372       10.2961405817       18.3348656903
  H        17.1735014755        5.3193506174        4.8513124748
  H        17.1994765224        6.7942846765        5.8886515620
  C        17.9690980140        5.0172587184        6.7991510392
  H         4.8129829787        5.5327724843        0.3732769879
  H         4.4813156710        5.8737110186        2.0125949572
  C         5.1079366110        7.6060119726        1.0905728197
  C        12.7472966170       -0.8741121984       -2.6715962281
  S         5.3908026711        6.2524915850       21.1339209552
  C         5.8358349418        9.3703225289       20.8993801598
  H        17.3237703238        4.5095784156        7.5361923990
  H        18.3847828199        4.1462333719        6.2720982971
  C        18.9957702645        5.8494450106        7.4646268136
  H         4.2018396967        7.7677314762        0.5042410089
  H         5.9814537824        7.8823810336        0.4841139335
  C         4.9778314566        8.5238771043        2.3053062895
  H        12.5647050682       -1.9396869646       -2.4992947335
  C        13.1070434116       -0.5415691678       -3.9737716222
  H         5.1540562039        9.0284809110       21.6928871250
  H         5.3965497147       10.3730268215       20.7252772087
  C         7.2499026286        9.4287968529       21.5194937587
  H        19.3503511700        5.5603071043        8.4915787419
  H        18.6787660095        6.8750690021        7.5889741355
  C        20.2315356135        6.0190186681        6.5560838687
  H         4.1997033238        8.1205108169        2.9747005249
  H         5.8817958055        8.5769775463        2.8961205626
  C         4.6192413663        9.9727132997        1.9852976418
  S        13.3946706071        1.0318527490       -4.5822776749
  C        13.1416139011       -1.5788957046       -5.0121325326
  H         7.1876881190        8.8450476892       22.4167988084
  H         7.6829249295       10.4254361753       21.5701849308
  H         7.9155843649        8.7967290764       20.9324312834
  H        20.0513275722        6.6747338731        5.8143023773
  H        21.0722040961        6.4659826959        7.1318323011
  H        20.5660177138        5.0685595325        6.2220257050
  H         3.5662867595       10.2027458096        2.3294842909
  H         5.3946457899       10.6439922118        2.3963780568
  H         4.6704782579       10.1743098206        0.9364454130
  C        13.8346752942        0.2210019061       -6.0808403759
  N        13.7815358257       -1.1125203885       -6.1104853756
  O        12.9176890454       -2.7640189857       -4.6919861620
  S        14.4365486354        0.9755497262       -7.5804597467
  C        14.0835093288       -1.9800619880       -7.2890043480
  H        14.1829109076       -2.9502197043       -6.8535386271
  H        14.9317048502       -1.7087353193       -7.7990481798
  C        13.0091620960       -1.8735582126       -8.4288853523
  H        13.4348082542       -1.1705734447       -9.1119447903
  H        12.0599870163       -1.5066156971       -7.9610800074
  H        12.9658173044       -2.8565488725       -9.0087059258
