352
 i =   117900, time =    58950.000, E =       100.0173562995
  H         9.2155359708        5.6220443173       32.5904319314
  C        10.3102907740        5.5519634872       32.4585790729
  H        10.6959391528        6.5784428200       32.3374472332
  C        10.8435638609        4.8062890344       31.2607500477
  C        10.9497667698        4.9769791079       33.7107117871
  C        10.4642171834        5.5145689726       29.9009226327
  H        11.8978178359        4.8339500189       31.3428852784
  H        10.4767634232        3.7291293636       31.3636782772
  H        10.6229136885        3.9240452172       33.8767819900
  H        12.0057764733        5.0197210252       33.6807307792
  H        10.6119952667        5.6915918561       34.5209452518
  C        10.2774388481        4.4677628486       28.7986093120
  H        11.2621071656        6.2513860548       29.6718401220
  H         9.4872395103        6.0259322429       30.0454500823
  C        10.6852731539        4.8798836147       27.3609529897
  H        10.6737359931        3.4701859495       29.0145259304
  H         9.1460195634        4.3523446036       28.9081282939
  C         9.6323436027        4.5636706315       26.3160495307
  H        11.5195585812        4.2201467269       27.1192731999
  H        11.0989020188        5.8755584603       27.3867785077
  C         8.3931131068        5.3736302887       26.4802465791
  H        10.0788154898        4.6508684540       25.3139209408
  H         9.4405922681        3.4839073750       26.3747892472
  C         7.2002112065        4.6729568632       25.7979750049
  H         8.2580317026        5.6035257527       27.5807244724
  H         8.4203877505        6.3406154762       25.9412028505
  C         6.9045829925        3.3875442331       26.4677774259
  C         7.4879393425        4.0673542133       24.4780722640
  C         5.9308326610        5.5293674196       25.7740291566
  C         6.9203589036        2.3564818627       25.5968654051
  C         6.2981471595        3.0858285101       27.6868978478
  C         7.3174530636        2.7523907740       24.3153716497
  C         7.8065359934        4.7456714381       23.3132959039
  H         6.1678255203        6.4429494204       25.2519965206
  H         5.6239772600        5.7860819991       26.7809903007
  C         4.6849197769        4.9847098181       25.0296734282
  S         6.3830824552        0.8942828633       26.2727929012
  C         6.0594340995        1.7101108906       27.7348752925
  H         6.1457427820        3.8904508908       28.3707791992
  C         7.4751063702        2.1163602731       23.1392453599
  H         7.9387278600        5.7930885615       23.3949313339
  C         7.9837807688        4.1769702250       22.1071390169
  H         4.9545318871        4.9100305619       23.9921193483
  H         4.5028701235        4.0487420579       25.4774806715
  C         3.5081409261        6.0096857470       25.1171484068
  C         5.6613378542        1.0273090492       28.9952281416
  C         7.8464509586        2.8408476656       21.9367032298
  H         7.4449889809        1.0186345291       23.0173839130
  C         8.5495655371        4.5939404060       20.9089483130
  H         2.7873381651        5.8546912529       24.3421102201
  H         3.7373291435        7.0656635640       24.9720712379
  C         2.7042693152        6.0083026483       26.3703064590
  C         5.6479544019       -0.4039950679       29.1495455626
  C         5.3929177566        1.7818228136       30.2193436532
  C         8.4188250196        2.1222123295       20.7088124893
  C         8.7478159085        3.5038222244       20.0710338528
  S         9.0617029543        6.1129258005       20.2312239675
  H         1.9374781810        6.7663351840       26.2840512468
  H         3.4967307979        6.3637538292       27.1230409823
  C         2.1880014043        4.6300850913       26.8892675509
  N         5.9480697695       -1.3146674711       28.1594964031
  C         5.4721838012       -1.0109920434       30.3873333768
  C         5.0118004388        1.2221965633       31.4193823250
  H         5.2725908096        2.8117134844       30.1182981811
  C         7.3240315023        1.3250059902       19.8840041938
  C         9.6052837217        1.2176175209       21.0223363241
  C         9.2274483248        3.8592280126       18.7995516388
  C         9.2303799086        5.2363134529       18.6086313268
  H         1.6299750502        4.1263273583       26.0928523828
  H         3.0777802354        4.0704797323       27.1276863804
  C         1.2589074013        4.8322644626       28.0510133283
  S         6.1239883650       -2.8107020669       28.8838174537
  N         5.5651869469       -2.3764271288       30.3623527633
  C         5.0300879769       -0.2556933625       31.5449466788
  H         4.7237586124        1.8567592350       32.2891296272
  H         7.1150251886        0.4774213906       20.4248005777
  H         7.7459355160        1.0726582404       18.8607651691
  C         5.9929437835        2.0902912015       19.6637660766
  H        10.0976254894        0.8506583526       20.0903046530
  H         9.3198537610        0.3707662166       21.6443626132
  C        10.6564740186        1.9223117010       21.9093898628
  H         9.3417895127        3.0972125492       18.0109875958
  C         9.5430258553        5.9926167926       17.3563632105
  H         0.8141893757        3.8651862262       28.3141938208
  H         0.4804751067        5.6077054682       27.7703963640
  C         1.9233608657        5.5012875978       29.2125506922
  C         4.6775852624       -0.9820014654       32.7701500718
  H         6.1765341100        2.7968979954       18.8502170376
  H         5.6654045840        2.6068274243       20.5304801403
  C         5.0357410434        1.0734435615       19.0716230099
  H        10.2511555785        2.0467613505       22.9722507130
  H        10.7650892349        2.9051696973       21.4756463571
  C        11.9796144168        1.2131483158       21.9977714722
  C         9.7280892925        7.3974133386       17.2334476298
  C         9.5976985802        5.3093291555       16.0232359887
  H         2.4573458145        6.3856478301       28.9785630640
  H         1.0493952998        5.9668727233       29.6915031340
  C         2.7664486544        4.7934454562       30.2268297952
  H         4.7355978858       -2.0482655508       32.6112554475
  C         4.3143402802       -0.5519245060       34.0551124393
  H         4.5512907994        0.6081438088       19.9029548709
  H         5.4089118020        0.2821746078       18.4025703296
  C         3.9654611347        1.7826180863       18.2104096092
  H        11.8128254305        0.3591253061       22.6554961628
  H        12.1043589825        0.6599074530       21.0936945507
  C        13.0736069491        2.0652131907       22.5258967455
  N         9.6248514315        8.2982306043       18.3134883149
  C        10.1020321782        8.0579954013       16.0774540795
  C         9.9620209511        5.9605781559       14.8454976724
  H         9.4155895221        4.2444318606       15.9102635558
  H         3.2092873797        5.4366893164       30.9778087818
  H         2.2468580018        4.0125794493       30.7176272126
  H         3.6551522638        4.2620877878       29.7549359050
  S         4.1834394416        1.1027272614       34.5704600062
  C         4.1806313914       -1.6206518091       35.0816296021
  H         4.1157006337        2.8400654082       18.3745504875
  H         4.1541263216        1.6165901044       17.1634354041
  C         2.6255028276        1.2348479899       18.5570846252
  H        12.8756612611        2.1813421192       23.6406519193
  H        12.9422780143        3.0786560611       22.0260172108
  C        14.3782302087        1.4057627646       22.3615026261
  S         9.8037078299        9.8226374837       17.7962318331
  N        10.2378749615        9.4450695311       16.2394922571
  C        10.2964365904        7.4383926272       14.8843434783
  H         9.9934052269        5.4371414832       13.8905942718
  C         4.0154453022        0.3987285522       36.2143319831
  N         3.9419378480       -0.9578086944       36.2145272522
  O         4.2745288779       -2.8471829959       34.9021433022
  H         1.7716115724        1.7717514051       18.0603969552
  H         2.5572466491        1.2042410735       19.6578239726
  C         2.4382955926       -0.1904825499       18.0536248172
  H        14.4518646356        0.9729142541       23.3015522910
  H        14.2966729894        0.6557800099       21.5863219826
  C        15.3838816782        2.4557709600       21.9892873890
  C        10.5772769634        8.1980606076       13.6929892229
  S         3.6443991586        1.3876674909       37.5715386864
  C         3.7795835956       -1.6658538037       37.4449482994
  H         2.4778397336       -0.3183184539       16.9391009558
  H         3.2398252082       -0.8017737892       18.3640575337
  C         1.1147931263       -0.7949411183       18.4979319754
  H        15.2935908650        3.3751041049       22.5907297875
  H        15.1827181403        2.7725182164       20.9726275104
  C        16.8460562082        2.1650324529       22.1806234541
  H        10.5414278238        9.2810074862       13.8028352098
  C        11.1746506518        7.8074017060       12.5210747207
  H         2.9878421196       -1.0959612506       37.9864923420
  H         3.3852163737       -2.6966697691       37.2954520925
  C         5.0504521233       -1.6759247162       38.1886982725
  H         0.2834259375       -0.1109258902       18.2386337960
  H         1.1453935114       -0.7524687581       19.6207578306
  C         0.9398088310       -2.1872185685       17.8855452159
  H        17.1604834551        1.5187516078       21.4336664619
  H        17.3125182134        3.0953415474       21.8805827026
  C        17.2573747002        1.8056580247       23.5372477910
  S        11.8201134042        6.3052843402       12.0366592433
  C        11.3217360104        8.8192911584       11.4882177950
  H         5.1848812773       -2.6507911513       38.6409073594
  H         5.9499693707       -1.4815134340       37.5238981750
  H         5.0643893675       -0.8745462538       38.8860297116
  H         0.1162029736       -2.8109389117       18.2799201878
  H         1.7927697638       -2.8156802035       18.0553501826
  H         0.8104148753       -2.0717440609       16.8437225983
  H        16.5556624762        1.0488380947       23.9820483607
  H        17.2917013426        2.7073398382       24.1543223690
  H        18.2967439440        1.3787572940       23.5043980372
  C        12.4118105414        7.1320185380       10.5660445838
  N        12.1259650310        8.4341957879       10.4856248858
  O        10.9343979740       10.0176026719       11.6348127862
  S        13.2934232983        6.2823864562        9.2726212755
  C        12.3819464210        9.2013634213        9.2519755904
  H        12.0462664858       10.2190737641        9.4257112617
  H        13.3871008290        9.3477965576        9.0070877944
  C        11.5090446229        8.7095878491        8.0560733154
  H        11.7765400579        7.8263040594        7.4542409009
  H        10.5135754264        8.6431392437        8.4395503745
  H        11.5180998424        9.4857235196        7.2930156809
  H         3.9187951829        3.6217029667       12.6717949432
  C         2.9808711689        3.0548388700       12.6606792520
  H         2.1527737567        3.7165517582       12.9612368532
  C         2.4637271630        2.5511737720       11.2494805662
  C         3.0763095864        1.9967577342       13.6854459897
  C         3.3893189795        2.7739151847       10.1035749893
  H         1.5339569099        3.0645076694       10.9728649260
  H         2.2120466644        1.4302628591       11.1966023891
  H         2.1098445950        1.3753533836       13.6470733457
  H         3.1062052466        2.4374710799       14.6891279663
  H         3.9371155791        1.4002477379       13.5938301215
  C         4.4303715503        1.6690703756        9.9128051252
  H         2.7153804050        2.7298475008        9.2599802902
  H         3.9177451994        3.6909120231       10.2014064428
  C         5.0793921189        1.8538788687        8.5427113276
  H         3.8880011429        0.7349199751        9.9528623902
  H         5.1604257820        1.7434245778       10.6988925943
  C         6.3504890857        2.7444800594        8.6062327538
  H         4.4050476913        2.3012197095        7.8237742458
  H         5.3494729944        0.9008121464        8.0916647105
  C         7.5761376202        1.9682948662        9.1229636052
  H         6.5766289915        3.2925338480        7.7501327643
  H         6.1439965707        3.5570255203        9.2610597477
  C         8.8825383844        2.8665834468        9.3886525367
  H         7.8854564676        1.2022214016        8.3616947489
  H         7.2976788958        1.4208926702       10.0322387380
  C         8.4423558926        4.1899113526       10.0288858407
  C         9.3354683483        3.5906682793        8.2080253562
  C         9.9787668046        2.1338712700       10.0639403003
  C         8.7839964855        5.3170857439        9.3470353303
  C         7.7183767369        4.5105044026       11.1936180370
  C         9.3047902882        4.9592445770        8.1036405801
  C         9.8159436053        2.9538217588        7.0539255146
  H         9.7262026431        1.7482441340       11.0631336849
  H        10.1159526884        1.2608985508        9.3905409224
  C        11.3231379802        2.9186472482       10.1927741051
  S         8.4113191142        6.7512476783       10.1568115165
  C         7.8818300679        5.8339501364       11.4888230664
  H         7.2676647832        3.6956670432       11.7013356721
  C         9.6671649591        5.5669047409        6.9480041683
  H         9.8185164327        1.8819399041        7.0304742730
  C        10.1937770250        3.5920566514        5.8816756088
  H        11.3227101696        4.0654438993       10.3567868076
  H        11.7415395555        2.8121705955        9.2210462929
  C        12.2760898652        2.1861274078       11.2008512938
  C         7.3020651618        6.5756502387       12.6824473213
  C        10.1402896019        4.9311537780        5.8072315904
  H         9.5839975392        6.6493417008        6.9223749859
  C        10.5661057965        3.2042254428        4.6080226517
  H        13.2068563520        2.6512563243       11.0025161693
  H        12.3077789685        1.1050232261       11.1356323769
  C        11.7475773252        2.6132117776       12.5765636944
  C         7.4486312026        7.9445325215       13.0063460912
  C         6.6699179824        5.6729053893       13.7066780215
  C        10.4903409382        5.5710514914        4.5103014967
  C        10.6837550380        4.2917560660        3.7670947690
  S        10.8810781047        1.7065303238        3.8397953777
  H        12.5098017222        3.0791375243       13.0861724162
  H        11.0209053456        3.4016887586       12.4315133440
  C        11.2440339397        1.4420700725       13.5404550655
  N         7.8807492236        8.9502862986       12.2032137780
  C         7.1250603391        8.4072663844       14.2825269702
  C         6.2934395604        6.2062446114       14.9191241951
  H         6.3623684845        4.7220412277       13.4735129381
  C        11.7653807402        6.4881604638        4.6329893659
  C         9.2372639753        6.2787398157        3.8969038175
  C        11.0787002335        3.8855162971        2.4761744981
  C        11.2210008117        2.5177543834        2.3859704400
  H        11.9643645507        0.6752295461       13.3810608362
  H        10.2633654227        1.0044751952       13.1384138377
  C        11.0729081001        1.8736896232       15.0054183640
  S         7.9993354724       10.3494856666       13.0526881636
  N         7.3206787984        9.7921539354       14.4308576461
  C         6.6368098577        7.5928637507       15.3371231964
  H         5.9281003015        5.5275939577       15.6051626358
  H        11.4867336512        7.2782996842        5.3596660432
  H        12.0212416829        7.0730175924        3.6862800758
  C        13.0071966275        5.6730294610        4.9530444845
  H         9.0926996150        7.2482731372        4.4016005680
  H         9.5550423148        6.5798672541        2.8853263396
  C         7.9072027099        5.4288295424        3.8919843441
  H        11.0628981057        4.6758691601        1.7110896071
  C        11.5319109645        1.7760641560        1.1409919991
  H        10.8301824779        2.9494515001       14.9917544734
  H        10.1412083430        1.4184989006       15.3554071920
  C        12.3613079075        1.6980800945       15.7521766047
  C         6.5830370103        8.2038070957       16.6173209719
  H        12.8880353370        5.1459637403        5.8867036824
  H        13.0171213099        4.8602790055        4.2278856670
  C        14.2188781597        6.5885574291        4.9796071000
  H         7.6731510429        4.9041649401        4.8281975708
  H         8.0384049348        4.5776814871        3.2153189976
  C         6.8519712646        6.2383348079        3.3815341070
  C        11.8306219535        0.3748378647        1.0581394760
  C        11.6959594096        2.5450732460       -0.1138498579
  H        13.0756624953        2.2061247672       15.1288456203
  H        12.6324342266        0.6617251016       15.7735997070
  C        12.1495894856        2.3330015328       17.1543599304
  H         6.9795016392        9.2021802399       16.6959961470
  C         6.2785213704        7.6808630845       17.8249086034
  H        14.2116291281        7.3496112209        5.7108650368
  H        14.2341903245        7.1094766600        3.9937294278
  C        15.4321415800        5.7105253779        5.1037509101
  H         5.9216326327        5.7367783980        3.6995036205
  H         6.8025003298        7.1775333529        3.8670953030
  C         6.9680134276        6.3363519000        1.9023118087
  N        11.6716947545       -0.5264067067        2.1333662608
  C        12.1888450186       -0.2289183472       -0.1704104307
  C        12.1558582903        1.9745467243       -1.2745275959
  H        11.5686706994        3.6270808180       -0.2020615234
  H        13.1474534462        2.4855610256       17.6512526268
  H        11.5912481739        1.6473257852       17.8291417423
  H        11.6241243922        3.3171198945       17.1449997593
  S         5.7931945146        6.0932452138       18.1909857387
  C         6.2375414615        8.6457713126       18.9428388314
  H        15.1546504839        4.8555454543        5.6567247752
  H        15.6752516440        5.3096315973        4.1510504942
  C        16.6231420321        6.4847225617        5.7079829424
  H         7.2057249784        5.4279700595        1.4534011128
  H         7.7092105630        7.0162529987        1.6082887375
  C         5.6341492227        6.9123836141        1.3267881689
  S        11.9696162576       -2.0381629484        1.5926191826
  N        12.2138145303       -1.6081056143       -0.0092216324
  C        12.3163475805        0.5117689008       -1.3492923523
  H        12.2057224125        2.5812905640       -2.1517730156
  C         5.6229067881        6.7402118288       19.8840677302
  N         5.8664894728        8.0349498412       20.0558605592
  O         6.4984471300        9.8514251132       18.7536084240
  H        17.2586142484        7.0608303491        5.0942150695
  H        16.2348116702        7.2217030169        6.4007171647
  C        17.5417340654        5.5325275166        6.4532657539
  H         5.3484136012        6.5881604655        0.3374468615
  H         4.8169270647        6.6188158128        2.0006042236
  C         5.4732886326        8.3992389397        1.3493320941
  C        12.6884361004       -0.2182263895       -2.5178239770
  S         5.3959730071        5.7449532202       21.2599461641
  C         6.1135924769        8.6540918595       21.3835424831
  H        16.8718579492        4.8740296235        7.0550174197
  H        17.9719210740        4.8923299200        5.6697599479
  C        18.6421522145        5.9889852123        7.3247672358
  H         6.2330150360        9.0145056389        0.8173354981
  H         5.6718440912        8.7455785505        2.3543059899
  C         4.1459794822        8.8237919341        0.8018867606
  H        12.7311960552       -1.2921375199       -2.3665365232
  C        13.1576615213        0.2527582015       -3.7542958986
  H         5.4217253697        8.1806750245       22.0922553306
  H         5.6430278216        9.6605425064       21.3828344764
  C         7.5248026694        8.6094581069       21.9861825871
  H        18.7080497264        5.2418079093        8.1411387037
  H        18.5161084808        6.9465843442        7.7818161435
  C        19.8750006129        6.0863931675        6.4489284433
  H         3.9996642106        8.7172792229       -0.2766241508
  H         3.3916807855        8.2204762179        1.3219090791
  C         3.7945306633       10.2771177450        0.8136701969
  S        13.7337669467        1.8076101727       -4.0680248608
  C        13.3994314780       -0.7912911191       -4.8415452361
  H         8.2978865498        8.8047669387       21.2943353762
  H         7.6953497050        7.6539669602       22.4636824680
  H         7.6962566493        9.4429519700       22.6431411969
  H        19.7179317766        6.6085360887        5.5086043436
  H        20.6427061275        6.5765515045        6.9607501058
  H        20.2363443675        5.0945781411        6.1105383157
  H         2.9399331238       10.4927088828        0.1034283825
  H         3.4238323111       10.4564186836        1.8305164788
  H         4.6632948343       10.8336838464        0.6739643709
  C        14.2098961971        1.1664599659       -5.6299222457
  N        14.0508712462       -0.1759649701       -5.7978209734
  O        13.0898769926       -1.9948153659       -4.6823354525
  S        15.1141711251        2.1379644932       -6.8428890312
  C        14.3004447970       -0.8430513030       -7.0566106670
  H        14.7204954586       -1.8061572799       -6.7340233927
  H        15.0533936561       -0.3111812029       -7.6884394083
  C        13.0360843153       -1.2087813840       -7.8438160567
  H        12.1728092249       -0.7476781919       -7.3608927986
  H        12.8233860989       -2.3155702997       -7.7330184101
  H        13.2009020447       -0.9106305080       -8.8862575235
