352
 i =   109200, time =    54600.000, E =        98.9371954209
  H         9.8834392421        4.9502984729       32.0125185699
  C        10.4974476038        5.8130719952       32.2746976647
  H         9.8069136497        6.6691758074       32.1565661798
  C        11.7245464178        5.8416840951       31.3876761403
  C        10.8005229286        5.5496538716       33.7427082028
  C        11.4892815215        6.6034135660       30.0250204168
  H        12.5870585794        6.2620995323       31.9984492940
  H        12.0899866620        4.8426349384       31.1270311964
  H        11.7431079413        5.1299584129       33.9027369145
  H        10.7191375271        6.4310325133       34.4124777090
  H        10.0646370301        4.8188532002       34.1219554491
  C        10.4434047484        5.9149992315       29.1469555121
  H        12.4385639216        6.7716023001       29.4783022453
  H        11.0924997628        7.5643903461       30.2968459992
  C        10.9745653716        5.7830757062       27.6926544221
  H        10.4400367584        5.0086093495       29.5794739582
  H         9.4232853618        6.4407008969       29.1895117359
  C         9.8747667112        5.3044658837       26.7411468588
  H        11.8089400441        4.9765911870       27.7415277205
  H        11.4705776881        6.7016711506       27.3550692379
  C         8.6685838036        6.2101838077       26.3614428262
  H        10.1756718630        4.7866058946       25.8890122107
  H         9.3760847773        4.5302430545       27.3934911103
  C         7.5494239262        5.4826077281       25.5600582876
  H         8.2453585598        6.6237169770       27.2296333165
  H         8.9622831055        7.0006296197       25.7444439298
  C         7.2131745006        4.1835048160       26.2557430112
  C         7.9596000021        4.7291766153       24.2670006086
  C         6.1945302873        6.2719233527       25.4724875485
  C         7.3668743626        3.0720634549       25.4543325072
  C         6.6457808670        3.8728418946       27.4851835183
  C         7.8111845804        3.3762934466       24.2105227630
  C         8.3958453277        5.2283259619       23.0635592403
  H         6.3324254698        7.0681073866       24.7558045329
  H         6.0271421314        6.7055144362       26.4825003329
  C         4.9757201607        5.4248917644       25.0273324154
  S         6.8007897443        1.5737782833       26.2788292821
  C         6.3884536190        2.5368994221       27.6439161645
  H         6.3589080524        4.6407523369       28.2272475279
  C         8.1641842340        2.5942463854       23.1789701059
  H         8.5356110840        6.3296017622       22.9509195192
  C         8.7589563355        4.4690116627       21.9594438966
  H         5.1853631739        4.9626140584       24.0842077241
  H         4.6578135557        4.7002387103       25.7662266819
  C         3.7606320231        6.3302339158       24.7176217230
  C         5.9949572076        1.7401654378       28.8313741709
  C         8.6664392303        3.0984990026       21.9594446105
  H         8.0418664146        1.5546496416       23.2035454249
  C         9.1822184674        4.7236024413       20.6895522316
  H         3.1598677312        5.8486211038       23.9082718498
  H         4.0709096925        7.1081827991       24.1236014644
  C         2.8491469919        6.6826106296       25.9087838849
  C         5.9928104962        0.3573481475       29.0784977071
  C         5.5497855619        2.4271018741       30.0552832078
  C         9.0918633679        2.3028594212       20.7102232007
  C         9.2930460737        3.6385348186       19.9180639953
  S         9.3744251372        6.2123366984       19.9251360732
  H         2.0794761441        7.2256204145       25.3546613151
  H         3.3092557165        7.3668683031       26.6208356700
  C         2.3458615958        5.4588702756       26.6150240838
  N         6.5006168605       -0.5617389239       28.1778316090
  C         5.8173693471       -0.2648780074       30.2995807490
  C         5.2820071731        1.8812592537       31.2960919568
  H         5.3948429589        3.5456040823       29.9613895747
  C         7.9179739550        1.4444447346       20.1551218248
  C        10.3826038781        1.5313157354       20.9058015559
  C         9.7684277775        3.9859426795       18.6072881995
  C         9.8538718557        5.3610886876       18.4862692894
  H         1.7809945628        4.8000487041       26.0000721711
  H         3.1771502128        4.8770605258       26.9533297260
  C         1.4102680601        5.6933840899       27.8281578056
  S         6.4526306645       -2.0607327876       28.7926586103
  N         5.9992423716       -1.6530816616       30.2814775880
  C         5.4501247723        0.3770019027       31.4766956189
  H         4.9000460181        2.5263162907       32.1332900051
  H         7.4258280244        0.9234392726       20.9114043970
  H         8.2982160115        0.7536144401       19.3225368350
  C         6.8557133503        2.4397674296       19.5427654587
  H        10.4771169011        0.8833688322       20.0273149287
  H        10.2124664644        0.8583106228       21.7659600401
  C        11.5869818499        2.4132494323       21.2481996214
  H         9.8884480235        3.1969514289       17.8841302203
  C        10.1369529109        6.1242272582       17.1883551215
  H         1.1142003491        4.7375446952       28.1647944795
  H         0.4544814400        6.1058777772       27.4970619905
  C         2.0141448906        6.5459813145       28.9666513607
  C         5.1356072849       -0.5003323987       32.6033986941
  H         7.0596295390        2.9776695825       18.6313166630
  H         6.4451545038        3.2058695137       20.2575581121
  C         5.6181247209        1.6241602319       19.1149848104
  H        11.5400892530        3.1035961367       22.1147111905
  H        11.6603646751        3.1159560111       20.4295827346
  C        12.8819568593        1.6342081119       21.3657542306
  C        10.1059759947        7.5353090773       17.0610202724
  C        10.1729483653        5.4025076482       15.9741877664
  H         2.3339368943        7.5064348959       28.4955763071
  H         1.1529049094        6.5863601525       29.6991861229
  C         3.1425461323        5.7115346229       29.5981145390
  H         4.9880123112       -1.5592782347       32.4796283017
  C         4.8179542734       -0.2177721374       33.9024430542
  H         5.1243214494        1.1699006934       19.9396996435
  H         6.0509715594        0.7383510433       18.6202032542
  C         4.6025363015        2.2015458796       18.1841028591
  H        12.6940252210        0.8565035404       22.0954972914
  H        13.1368570978        1.1464275127       20.3658209131
  C        13.9399702660        2.5989753276       21.8230088301
  N        10.0539209708        8.4120050347       18.1255016551
  C        10.3192214314        8.1892533573       15.8507413437
  C        10.4457534892        6.0165672780       14.7454932146
  H        10.0107092435        4.3375721854       15.9540192120
  H         3.4630080258        6.2327814513       30.4798552132
  H         2.8203809129        4.6875707397       29.7743270745
  H         4.0998732933        5.6060951728       29.0776676730
  S         4.7146712682        1.4207792263       34.5491181133
  C         4.6460217705       -1.2843923036       34.8914671161
  H         4.2873094058        3.1803951031       18.5239446618
  H         5.1723113507        2.4316224641       17.2802700378
  C         3.2692194447        1.4623871840       17.8751927926
  H        13.7508562773        3.0808374660       22.7615072197
  H        13.9317865984        3.4476457014       21.0728152477
  C        15.3208789275        1.9613541186       21.7255858615
  S        10.1162876603        9.9454750493       17.5374838114
  N        10.3297444445        9.6425896818       15.9684389398
  C        10.6439856648        7.5175298823       14.6799950485
  H        10.5301409043        5.4567199836       13.8699605155
  C         4.4153631456        0.6418194903       36.0842922265
  N         4.3715371076       -0.7453830274       36.0805212142
  O         4.7920882702       -2.4820536414       34.6415094798
  H         3.0542777838        1.9910369343       17.0291665845
  H         2.6466064684        1.6686800787       18.7332483713
  C         3.3461996881        0.0220359654       17.5938024943
  H        15.3737157787        0.9170034182       22.0190097893
  H        15.7041340551        1.9646047279       20.7564306021
  C        16.2267163445        2.6722562533       22.7346117239
  C        10.9044887572        8.2531271132       13.5146523391
  S         3.7327260352        1.3880337543       37.5588830350
  C         4.3168697958       -1.5057805337       37.3831257219
  H         4.2643454150       -0.1903569509       17.0879949067
  H         3.3917535916       -0.4473284372       18.5246613997
  C         2.2111364862       -0.5991272491       16.8467741210
  H        15.8450559235        2.4987909093       23.7453252913
  H        16.0882266641        3.7123569326       22.4779641493
  C        17.6476706130        2.1462234944       22.5664236602
  H        10.6922872646        9.2751139268       13.6331964025
  C        11.3954757690        8.0184153365       12.2629109244
  H         3.5844284311       -1.1064109738       38.1219246115
  H         3.8802713767       -2.4245759165       37.0921691875
  C         5.7258999946       -1.6857534315       37.9501582084
  H         2.1771589724       -0.2271468288       15.8583598702
  H         1.3371694797       -0.2305444711       17.2569961703
  C         2.3946128464       -2.1243389403       16.7458216607
  H        17.6334980521        1.1615239332       22.1630814451
  H        18.2566263351        2.6851343349       21.8194772819
  C        18.3313840290        1.9376482388       23.8765962601
  S        12.0443887818        6.5606903240       11.7142357544
  C        11.3493247189        9.1647884743       11.3029231237
  H         5.7521815448       -2.0395856577       38.9695434394
  H         6.2449211093       -2.4563687821       37.3218079791
  H         6.3256886050       -0.7864595354       37.9314965881
  H         1.6865647960       -2.5240022636       17.4816852130
  H         3.4370711264       -2.2627197361       17.0980479637
  H         2.2644801380       -2.6061027819       15.7304921708
  H        19.2923734502        1.4565500178       23.7845046058
  H        17.7592269540        1.2468509136       24.4175201392
  H        18.5221367484        2.8056656321       24.5028281976
  C        12.0805030517        7.3241454389       10.1590089281
  N        11.9658765775        8.6894021712       10.1689062814
  O        10.8697393030       10.2787464424       11.5314205801
  S        12.7304793322        6.6397907523        8.6729353639
  C        12.0611579841        9.5267010407        8.9963725088
  H        12.3316979820       10.4819274465        9.4406900215
  H        12.8935521884        9.3957666796        8.3933508201
  C        10.7186636915        9.8368319207        8.2941927954
  H         9.8569621548        9.6636209630        8.9582229357
  H        10.7332148004       10.9740267918        8.1848057725
  H        10.5898861411        9.3406178039        7.3262315151
  H         2.5437105617        3.4682412685       12.1835114294
  C         3.2044348459        2.7110847294       12.5871897574
  H         2.9175368588        1.7617219059       12.1406594042
  C         4.6469872560        3.1575546242       12.0796954460
  C         3.1428613860        2.5537785483       14.0389846154
  C         4.8355128347        3.3095532010       10.5753037135
  H         5.3413369010        2.4256554044       12.5156202216
  H         4.8375229642        4.1523238103       12.5592238893
  H         3.4291007215        3.5158024879       14.5012064258
  H         3.7740158184        1.7474874786       14.4375300143
  H         2.0644366276        2.4482243207       14.2757012102
  C         4.8489343849        1.9416138130        9.8913739038
  H         3.9947387556        3.8744354791       10.1836678672
  H         5.7684815538        3.8487451954       10.3765955947
  C         5.3059806530        1.9450421893        8.4207270019
  H         3.8725611865        1.4275066675       10.0260316551
  H         5.6173985821        1.2952383102       10.3602420517
  C         6.7642185496        2.6429912429        8.2579031407
  H         4.5421944097        2.4743745088        7.8228243312
  H         5.3334464488        0.9048534878        7.9435756142
  C         7.9211533380        1.9360625446        9.1233883468
  H         7.1229669737        2.5483098388        7.2342710047
  H         6.6247378829        3.7611418548        8.2315584064
  C         9.1121193022        2.8651448771        9.3421819242
  H         8.3449219389        0.9748936162        8.6896657104
  H         7.5452226610        1.6476297498       10.1273907823
  C         8.7393112961        4.2028964443        9.9359600346
  C         9.4469337795        3.5363005736        8.0548619907
  C        10.2323036309        2.0941036607       10.0979861100
  C         9.0088123251        5.3176115946        9.1636608495
  C         8.3974547846        4.6359143303       11.2052725880
  C         9.4597132345        4.8736313880        7.9405447846
  C         9.9326072973        2.8714104748        6.9029068499
  H         9.9735207453        1.8473817787       11.1446334218
  H        10.4634327540        1.2229270202        9.6161667646
  C        11.5345686476        2.8883479957       10.3083848159
  S         8.5218152943        6.8156853944        9.8911268887
  C         8.1888436926        5.9704742142       11.3537423074
  H         8.0677067968        3.8258443245       11.8813782757
  C         9.9641313125        5.4711671244        6.8229366969
  H         9.8416973395        1.8402861430        6.9913773270
  C        10.3159044021        3.4871604483        5.7456857414
  H        11.3403289499        3.9018196309       10.8027308367
  H        11.9174358237        3.0473839092        9.2959670596
  C        12.5036572504        2.1762542699       11.1934324532
  C         7.7261051646        6.6128792512       12.6395897214
  C        10.3148132135        4.8652153676        5.6318350502
  H        10.1178442593        6.5740268466        6.8526789319
  C        10.7143911380        3.0627183693        4.4563747028
  H        13.2886495546        2.9625525874       11.2684499497
  H        13.0477544527        1.3644967006       10.8188554587
  C        12.0270513500        2.2513930035       12.6554883636
  C         7.6823919255        7.9839623648       12.8909919623
  C         7.3545875136        5.7243042983       13.7414316476
  C        10.7881794249        5.5198290663        4.3849157580
  C        10.9387703185        4.1806416439        3.6434799861
  S        10.9709773413        1.5308270863        3.6834691500
  H        11.2463414524        3.0151500064       12.9729765845
  H        11.6463663371        1.2553823988       12.7612618133
  C        13.1826360032        2.4016552517       13.5373167750
  N         7.8365414455        8.9925980199       11.8872740453
  C         7.4328093403        8.5022828422       14.1579896574
  C         7.1078433746        6.2676048152       15.0010115362
  H         7.1614350088        4.6801931699       13.6240072432
  C        12.1622022258        6.2261832354        4.6440679665
  C         9.7161479654        6.4476589931        3.6841103715
  C        11.2161811802        3.7454935010        2.3541973696
  C        11.2652010408        2.3886437904        2.1647249999
  H        13.7947790269        3.2524898049       13.4109985812
  H        13.7554219961        1.5088470376       13.2237311110
  C        12.6849633582        2.3026147013       15.0277619026
  S         7.9441748425       10.4228843961       12.7163478921
  N         7.5580900356        9.9030595502       14.1900158933
  C         7.1829992360        7.7253704401       15.2738327735
  H         7.0010166111        5.5579163288       15.7926197651
  H        12.0535121205        7.0164953898        5.3441821198
  H        12.5639391397        6.5877751617        3.7059810169
  C        13.2675255873        5.2806818267        5.1870366235
  H         9.2387753109        7.0825450240        4.4046913314
  H        10.1724465150        7.0387018620        2.8506572924
  C         8.6293215509        5.7039752298        2.9548988389
  H        11.2985559305        4.4836731812        1.6193290815
  C        11.5811091798        1.6591641960        0.8733503036
  H        12.1461908425        3.2219020333       15.3504013585
  H        11.9124859300        1.5860040302       15.2113867662
  C        13.9323081853        2.1006667986       15.8249167932
  C         7.0315033906        8.3810655348       16.5424001361
  H        13.0543478688        4.9356481772        6.1779206720
  H        13.5063706895        4.3832805750        4.6247475747
  C        14.5719320282        5.9985476915        5.3800706776
  H         8.2661718101        4.9325327089        3.6451865612
  H         9.0683825365        5.1994203195        2.0736782613
  C         7.3678922620        6.6071933447        2.6635627058
  C        11.6890870986        0.2698819884        0.7844482374
  C        11.9180586081        2.3700642018       -0.3696681783
  H        14.6741935410        2.8895896390       15.6252467540
  H        14.5219504375        1.1399207412       15.8046206926
  C        13.5491023527        2.2659363627       17.2612054336
  H         7.2859814033        9.4124342320       16.6616868767
  C         6.7831227120        7.8957758343       17.8247849952
  H        14.3529868515        7.0825060231        5.5616281694
  H        15.1011201440        5.9522230699        4.3968238878
  C        15.4078989174        5.4679459095        6.4563022788
  H         7.1286721119        7.2199566198        3.5899926165
  H         7.5854760966        7.2997974948        1.8676869610
  C         6.0768344365        5.8511173814        2.2164312959
  N        11.6009608181       -0.5805386835        1.8830801458
  C        12.0170161036       -0.4224113083       -0.3736439660
  C        12.3640828070        1.6897966897       -1.5201264531
  H        11.7570714533        3.4221206727       -0.4039098400
  H        14.4361886302        2.7883061377       17.7138764289
  H        13.4156147415        1.2522683248       17.5631040741
  H        12.6991600961        2.8915043441       17.4963898297
  S         6.3336654101        6.3031349943       18.3909039744
  C         6.7855210496        8.9552679712       18.9336354261
  H        15.1118611395        5.8405009475        7.3645066284
  H        15.2222835745        4.4371054207        6.5459735747
  C        16.9345395820        5.6574793061        6.2999322278
  H         5.8038823233        4.9452070495        2.7852118895
  H         6.3668299819        5.4689829581        1.2606899148
  C         4.8021344565        6.6428987439        2.0632961648
  S        11.5991751632       -2.0811180179        1.3368529165
  N        12.1249006132       -1.7924554019       -0.1751145963
  C        12.4077812826        0.2018363133       -1.5596582464
  H        12.7331477343        2.2544818045       -2.3733189683
  C         5.9705795626        7.0579025396       19.9020477728
  N         6.3069320496        8.3944529508       20.0645509908
  O         7.2096567823       10.0742525881       18.9134633226
  H        17.2500205592        4.9256633837        5.5258595519
  H        17.0930670190        6.6756149134        5.7860549727
  C        17.7296555604        5.2985641465        7.5308390127
  H         3.9608769465        6.0000014415        2.1534536541
  H         4.8589962997        7.3531843079        2.9204038938
  C         4.6425047212        7.3479136202        0.7230922134
  C        12.7076110044       -0.6122785523       -2.6956805155
  S         5.3737556321        6.0933558224       21.1811267335
  C         6.2707829117        9.0189750043       21.3700611949
  H        17.0181867458        5.2604236372        8.3173501270
  H        18.0287959610        4.2992671121        7.2629455315
  C        18.8574958418        6.2060648842        7.9339799051
  H         4.5393739559        6.6179565541       -0.0529149494
  H         5.4606304763        7.9464379859        0.3886706419
  C         3.3982538505        8.2524007217        0.6417342893
  H        12.2305110188       -1.5484398121       -2.6684666209
  C        13.2961680101       -0.2677282574       -3.9130299086
  H         5.5227232557        8.4753841306       21.9752991046
  H         5.9012119439       10.0369248347       21.2092629322
  C         7.5967887774        8.9579790655       22.0028072142
  H        19.2660562076        6.0230119734        8.9271100303
  H        18.4591058591        7.1807422994        7.9812764539
  C        19.9444070012        6.1887479641        6.8912378737
  H         3.0569274238        8.4576368229       -0.3627229351
  H         2.6586198164        7.6512034625        1.2217313639
  C         3.5299074455        9.6603263283        1.0567170343
  S        13.8881347652        1.2184681594       -4.4587887915
  C        13.4027904061       -1.4372056013       -4.8253645787
  H         8.2230179068        8.1822004197       21.6102156666
  H         7.4714888025        8.7543979697       23.0431483394
  H         8.1201681872        9.9017624147       21.7197482830
  H        19.5811194362        6.4880899165        5.9310827657
  H        20.7745766704        6.7646572238        7.3140345527
  H        20.2880949118        5.1729022095        6.8692070641
  H         2.9671185250        9.8881390534        1.9297163359
  H         4.5967379186        9.8435464556        1.3093701504
  H         3.3687065814       10.4105761902        0.2964298242
  C        14.0848242578        0.3633570251       -6.0141971197
  N        13.9985235985       -0.9778962789       -5.9268938135
  O        13.0600322367       -2.5784423779       -4.5812131663
  S        14.8023322188        1.0575109840       -7.4290760775
  C        14.2059047378       -1.7549241116       -7.1074100374
  H        14.4936220285       -2.8202665166       -6.9688555683
  H        14.9571403066       -1.4414935764       -7.6819332145
  C        12.9357565625       -2.0163916477       -8.0061377962
  H        13.1955938055       -2.6708318095       -8.7855684947
  H        12.5120529609       -1.0661648264       -8.2642935518
  H        12.2092886900       -2.4653411149       -7.4063612578
