352
 i =    81200, time =    40600.000, E =        99.8969189983
  H        12.6768459549        6.3549393875       32.2873984248
  C        12.0389963038        5.5097633511       32.2168386025
  H        12.5252155032        4.7077245744       31.6349297966
  C        10.8798342122        5.8929882136       31.3761015928
  C        11.5570560163        5.0667992808       33.6041568636
  C        11.1687599565        6.5138448179       30.0025957212
  H        10.1301474220        5.1088577537       31.1517955880
  H        10.3485032318        6.6707164001       31.8993695650
  H        11.2004474323        4.0407281191       33.4302281054
  H        12.2449492610        5.0894230011       34.3968568284
  H        10.6157586651        5.5866369026       33.8851987742
  C        10.9478280245        5.4637882995       28.9210673448
  H        12.1702128484        6.9557783765       30.0203194243
  H        10.3672827318        7.3395795653       29.9346932845
  C        10.6715481655        6.0494190489       27.4559507490
  H        11.8322698013        4.8160752194       28.9617265669
  H        10.1717484633        4.8019448072       29.0649639739
  C         9.6671177088        5.1483147795       26.7257779802
  H        11.5321089507        6.1895309007       26.8054294634
  H        10.2461782625        7.0451715313       27.5754333552
  C         8.4131016221        6.1290972448       26.3601676173
  H        10.1609305811        4.8095839016       25.7928780998
  H         9.2796813533        4.2646317875       27.1623326973
  C         7.2016231756        5.3724925450       25.6827489730
  H         8.0147342703        6.6497032350       27.2085550492
  H         8.7469277047        6.8095103390       25.6160008458
  C         6.8632207474        4.0538766479       26.4665292671
  C         7.5776101886        4.6000414593       24.4183479539
  C         5.9471821775        6.3446980445       25.5414927486
  C         7.0959707538        2.9796127004       25.6084532803
  C         6.5112435032        3.7045471343       27.7564638546
  C         7.4703704394        3.2876587849       24.2867176306
  C         7.9599592328        5.2215789808       23.2357397559
  H         6.1150613314        7.2039278341       24.8533145899
  H         5.7825426007        6.7762496638       26.5304808190
  C         4.6802552325        5.6567922400       25.1057506645
  S         6.8904260592        1.5596074879       26.4432100554
  C         6.4237325567        2.3450774452       27.9005101244
  H         6.2893613667        4.4325356492       28.4335377745
  C         7.8515250722        2.6875421821       23.1296732739
  H         7.9530705942        6.3496064840       23.2700273172
  C         8.4662373677        4.5759636019       22.0977664906
  H         4.7361982357        5.2216628335       24.1310710914
  H         4.5203493863        4.7889967794       25.7356049942
  C         3.4443306432        6.6244869131       25.1262451531
  C         6.0093524939        1.5982633951       29.1703820759
  C         8.4505694583        3.2480146232       21.9983784209
  H         7.7120069507        1.6197109369       23.1473560130
  C         9.0132485321        4.9922903361       20.8758088524
  H         2.7682475572        6.4532720846       24.2750782979
  H         3.7879424769        7.6192078651       24.9917138010
  C         2.6468309798        6.5733822341       26.4341184384
  C         6.0191166871        0.2371732076       29.3437427797
  C         5.5405068350        2.4161230118       30.3335448648
  C         9.0124090958        2.5580230344       20.7839725340
  C         9.2493313612        3.9083765047       20.0363855055
  S         9.4440629796        6.5243925741       20.1156362842
  H         1.8801710126        7.3576353138       26.4707846167
  H         3.3212299045        6.7216441638       27.2865277493
  C         2.1069370935        5.1833767675       26.7899665070
  N         6.4253868525       -0.6964655883       28.3748818499
  C         5.6169546393       -0.4223442881       30.5108641532
  C         5.2096286533        1.7756344871       31.5068650266
  H         5.4328954729        3.4587490742       30.2319167648
  C         7.9771073788        1.6233252409       20.0958817063
  C        10.3083231177        1.7796682246       21.0121623571
  C         9.6575173062        4.3309771626       18.7928267025
  C         9.6817568483        5.6777518433       18.6860829708
  H         1.5080523895        4.8183434726       25.9690132023
  H         3.0556073670        4.5779079615       26.8013470730
  C         1.2225672778        5.1522736446       28.0630367809
  S         6.3990851840       -2.2203078895       28.9901172587
  N         5.5978529266       -1.8209404939       30.4114690823
  C         5.2325629905        0.2864168547       31.6593636471
  H         4.7492453832        2.3457024376       32.3713580370
  H         7.8005610189        0.7720424627       20.7465660768
  H         8.4255585332        1.1730027679       19.2470801263
  C         6.6840037431        2.3734459759       19.7137921877
  H        10.8146094701        1.5169441188       20.0898909418
  H        10.2299012282        0.7297362791       21.4128521206
  C        11.3888298465        2.5961203571       21.6822828398
  H         9.8504189894        3.5833422984       18.0601506783
  C        10.1866257005        6.3815524675       17.4708402561
  H         0.7138504227        4.2144738407       28.1725963604
  H         0.4912856706        5.9580562478       27.8734671001
  C         2.0095918771        5.4567314097       29.3437163516
  C         5.0119680147       -0.4036216256       32.9304423497
  H         7.0114907241        3.3725524113       19.3638542629
  H         6.0983209284        2.3633122146       20.5938204791
  C         5.9731608927        1.8300029042       18.4604447714
  H        10.9973422798        3.0840488708       22.5342248232
  H        11.5639552463        3.4565619410       21.0112830724
  C        12.6991089878        1.8149709169       21.7973951319
  C        10.1457286912        7.7421570460       17.2775141851
  C        10.5186130538        5.4742713477       16.2173834656
  H         2.8243144376        4.6781054982       29.4154460966
  H         2.5489042505        6.2821915033       29.0720776902
  C         1.0909135430        5.4011490409       30.5647538031
  H         5.0408543239       -1.4808753234       32.8627119625
  C         4.6444361645       -0.0418223384       34.1822963762
  H         5.8567358308        0.7651039899       18.5396540495
  H         6.6654089061        2.1319034607       17.6624767804
  C         4.6176749478        2.4304241212       18.1777064932
  H        12.6530924860        1.0317270440       22.5719232231
  H        12.9759713122        1.5386422369       20.8307345260
  C        13.7236645929        2.8440016665       22.2811825721
  N         9.6384452307        8.6751705061       18.2033188341
  C        10.4011576632        8.3117110028       16.0678596519
  C        10.7510548003        6.1421294366       15.0083023110
  H        10.3773462835        4.3802969435       16.1681235043
  H         0.3187165926        4.5789643079       30.4297988431
  H         1.7347464274        4.9658594228       31.3495676640
  H         0.6789155616        6.3698549411       30.8746717056
  S         4.1663534490        1.5216943079       34.6145474449
  C         4.5822522642       -1.0673633226       35.3217018979
  H         4.6977704126        3.5087972946       18.3018748822
  H         4.3440359737        2.2383612933       17.1256847687
  C         3.5284516062        1.7548597795       19.0010982943
  H        13.0324755530        3.6443512568       22.6031755195
  H        14.3112359113        3.0675291691       21.4187812949
  C        14.6794164035        2.3190656113       23.2434919886
  S         9.9303539116       10.1910803290       17.6398007274
  N        10.1645828488        9.6868701892       16.1137195149
  C        10.7589297964        7.6378295312       14.8901796437
  H        10.6152451387        5.6657597161       14.0326036810
  C         4.1252837664        0.9014909377       36.2393296257
  N         4.1471676061       -0.4964062614       36.4067806262
  O         4.8382922703       -2.2485569493       35.1961199418
  H         2.9476052120        2.5709407424       19.2345356822
  H         4.0588713672        1.2905800145       19.7809451638
  C         2.7000425934        0.8966934419       18.1400086208
  H        14.2723245042        2.3995916725       24.3194054144
  H        14.9443950119        1.2911941768       22.9294822075
  C        15.9000295167        3.2162269179       23.1235510112
  C        11.0909664214        8.4379242400       13.7113230003
  S         3.6620866473        1.8644446125       37.5911767649
  C         4.1278541657       -1.2163756171       37.6237863928
  H         1.7693726779        1.3995042251       17.9819766687
  H         2.9435323359        0.5196639076       17.1452531004
  C         2.2515833864       -0.3421189593       18.9382104088
  H        16.3261758490        3.2825113673       24.0818576882
  H        15.5677565933        4.1634809257       22.6736622125
  C        17.0182077485        2.7031977787       22.2027320862
  H        11.1127890418        9.5457656495       13.8331640854
  C        11.4489400929        8.1660761516       12.4205906399
  H         3.4633810371       -0.6574654270       38.3439097163
  H         3.6792649376       -2.2181762254       37.5802933676
  C         5.5427226414       -1.2160673454       38.2352622003
  H         1.1409910856       -0.4432122611       18.8961242591
  H         2.4509644338       -0.1083453739       19.9548122576
  C         2.8934723781       -1.7441796999       18.5277793858
  H        16.7006187099        2.2746085176       21.2622945988
  H        17.7631790302        3.4810410122       22.0492446344
  C        17.7380103088        1.5398722904       22.8598209876
  S        11.8082007972        6.5968713846       11.9226969154
  C        11.5473099944        9.2398009447       11.3771820488
  H         5.4458478894       -1.3231877148       39.2868793636
  H         6.2012415292       -2.0059176930       37.9163743062
  H         5.9910086827       -0.2315395277       37.9438122591
  H         2.6918283007       -1.9954794673       17.4960774421
  H         2.5657884014       -2.5750202683       19.1308066468
  H         3.9807799152       -1.6124245027       18.4640908310
  H        18.4744847368        1.1666451464       22.1357464302
  H        17.0161820239        0.7411444072       23.0795205240
  H        18.3167666189        1.7835869623       23.8011094902
  C        12.2619808153        7.3355525779       10.3764306273
  N        12.1301586380        8.6873360675       10.2798472432
  O        11.4039273807       10.4525263449       11.6350701468
  S        12.7969267887        6.3807986205        8.8959847452
  C        12.2341718649        9.3827743684        9.0437398058
  H        12.5680891627       10.4192921227        9.2311186304
  H        13.0219166742        9.1230929112        8.3162168814
  C        10.8963730200        9.3318782627        8.3118170792
  H        10.9547798093        9.4389154198        7.2426550144
  H        10.4472367778        8.2999111334        8.4443165898
  H        10.2886686334       10.0518107946        8.7812241180
  H         2.5352325381        0.8792361419       12.5655161399
  C         3.1185364225        1.7160724916       12.2616830340
  H         4.0613600672        1.3070204418       12.2705004121
  C         2.6888214542        2.1852172283       10.9000756754
  C         2.9830402840        2.5810164794       13.4316890204
  C         3.7768092092        2.6730235987       10.0144519427
  H         2.0134479583        3.1341320524       10.8835170547
  H         2.1859261577        1.3615161772       10.4270988247
  H         2.7500381599        2.0340666795       14.3704374730
  H         2.1278166461        3.2328568762       13.3224704880
  H         3.8936246264        3.1582022686       13.5757587377
  C         4.6788362387        1.4456404982        9.5983734574
  H         3.3764057592        3.1035555481        9.0940462589
  H         4.3481633810        3.4788821042       10.3959871275
  C         5.4243376132        1.5639506423        8.2798598782
  H         4.0739021142        0.4810277856        9.5737983245
  H         5.3773155049        1.4008511872       10.3853510972
  C         6.6226376625        2.5217022974        8.4955989303
  H         4.7190038702        1.9258241125        7.5082910156
  H         5.8163707858        0.5363538050        8.0639564497
  C         7.8837463088        1.8247003717        8.9996004529
  H         6.7682705028        3.2183065853        7.6211115402
  H         6.3019347938        3.2360932991        9.2411961927
  C         9.0156292253        2.7834569794        9.3012538168
  H         8.2023541107        1.1369605300        8.1842028943
  H         7.6032169039        1.2992044215        9.9602495906
  C         8.6063219305        4.0411365003       10.0379368871
  C         9.3368531810        3.5597211438        8.0873997856
  C        10.2269194877        2.1076520316        9.9857561100
  C         8.7558337332        5.1734575961        9.2617227377
  C         8.0635324807        4.3622625560       11.3027673840
  C         9.2603785538        4.8937366828        8.0346506290
  C         9.8459295195        2.9650226466        6.9524778885
  H         9.9355707563        1.2812724689       10.7576944468
  H        10.8672473855        1.6326101805        9.2637969302
  C        11.1644737505        3.0657792585       10.7598384238
  S         8.3043537546        6.6526123716        9.9487244851
  C         7.9878418579        5.7297849008       11.4492389081
  H         7.7516461391        3.5890123565       12.0067545269
  C         9.7624423586        5.5736685732        6.9362371594
  H         9.8519256241        1.8636118660        7.0915490869
  C        10.2947686847        3.6340545525        5.8377092328
  H        10.6114175337        3.6509247818       11.4534664289
  H        11.5683127932        3.8824634854       10.0432228996
  C        12.3853549662        2.5320745267       11.4067956314
  C         7.6543219707        6.4396048979       12.7724599364
  C        10.2071240014        4.9940706671        5.7535933939
  H         9.7060366838        6.6156996838        7.0150542035
  C        10.6944923921        3.2535792909        4.5776348558
  H        13.1184142078        3.3527492331       11.6029340766
  H        12.8652340904        1.8020908057       10.7647389904
  C        12.0114675539        1.7670409305       12.7481473908
  C         7.8121674750        7.8152034136       13.1003001942
  C         7.0841346101        5.5168260733       13.8622618264
  C        10.7824467995        5.6984574510        4.5231884423
  C        10.9362761972        4.3533810595        3.7549476232
  S        10.9094708745        1.7519541916        3.7951134767
  H        11.1271758700        1.0856382011       12.7090902382
  H        12.8549858377        1.1569209986       12.9089760046
  C        11.8276617423        2.7007362089       13.9681967275
  N         8.2870354659        8.7709349700       12.2380270457
  C         7.4204288066        8.2756656921       14.3476913458
  C         6.6829487299        6.0415038569       15.0854514203
  H         7.0929625056        4.4474151379       13.7673589072
  C        12.1310053058        6.4608991100        4.7425854447
  C         9.7384477572        6.6305189761        3.8317641817
  C        11.2973895349        3.9840373919        2.4250047915
  C        11.4767209903        2.6268354429        2.3890406320
  H        10.9022669835        3.2226363713       13.8652189578
  H        12.6824488845        3.4149874276       14.0022465511
  C        11.7191353894        1.9781355224       15.2406597767
  S         8.2084768403       10.2275184975       13.0230504065
  N         7.5894093798        9.6288543022       14.4286261791
  C         6.8473397965        7.4807034000       15.4239867267
  H         6.1483028232        5.3945115666       15.7727920568
  H        11.8588097750        7.3110781112        5.3652042832
  H        12.3772501873        6.9812215021        3.7835069289
  C        13.3142895117        5.6533831496        5.2562261160
  H         9.4196004240        7.1857597016        4.7506671401
  H        10.0607781510        7.3412575156        3.0711465566
  C         8.4287850420        6.0214432670        3.3318040956
  H        11.4459914207        4.7363290606        1.6910503425
  C        11.9813882654        1.8991873204        1.1697305232
  H        10.7739177404        2.1891820813       15.8246306298
  H        11.5103558488        0.9433721987       14.8877163249
  C        12.9268196442        2.1180797019       16.1105369126
  C         6.6579428710        8.1268271056       16.6418439105
  H        12.8739494944        4.9753476620        6.0075389680
  H        13.6402217142        4.8962778675        4.4880669892
  C        14.6277673006        6.3023265314        5.5398550380
  H         7.5860257758        6.3751541685        3.8954592588
  H         8.4619318977        4.9435325290        3.4214535693
  C         8.2570157066        6.2297540376        1.8270967604
  C        11.9159663987        0.4937037159        0.8750770150
  C        12.3632226483        2.6310827909       -0.0370538772
  H        13.5730358179        2.8737792445       15.7302221229
  H        13.4994688036        1.1603914440       16.0776945193
  C        12.6853862905        2.5552281949       17.5900113754
  H         6.9383496434        9.1692400502       16.6706971694
  C         6.3467154780        7.7875093083       17.9060017319
  H        14.3692187572        7.2611965263        5.9872676063
  H        15.0697082445        6.6005550388        4.5337242698
  C        15.5433391739        5.5097416666        6.4454820843
  H         8.4017369871        7.2853034885        1.6223576366
  H         9.0437846626        5.7668895513        1.2565878887
  C         6.9903829985        5.5632148810        1.2453962043
  N        11.6072578732       -0.4589469823        1.8407619368
  C        12.2417931036       -0.1008330936       -0.3064130573
  C        12.7086297387        2.0623919710       -1.3142668338
  H        12.7515900000        3.5880595716        0.1678876676
  H        12.4590761742        3.6278694211       17.5998921064
  H        13.5562447132        2.4423475765       18.2526373735
  H        11.9281713801        2.1972374626       18.1763420178
  S         6.0628015740        6.2139951279       18.5141605808
  C         6.2274892376        8.8185709211       18.8845724223
  H        15.6794098149        6.0428839413        7.4288700707
  H        15.0925778829        4.5687261355        6.5669353708
  C        16.8221117293        5.3019478250        5.7252599673
  H         7.0715071039        4.4934660597        1.2320524975
  H         6.8900217102        5.8111636585        0.2441353033
  C         5.6827080899        6.1430394878        1.8054820157
  S        11.6691475523       -1.9415651575        1.1983791578
  N        12.1791552564       -1.4835905957       -0.2822626921
  C        12.6472695524        0.6030301475       -1.5272732851
  H        13.1198950697        2.6969608446       -2.0049548963
  C         5.9636718412        6.9632673051       20.0643453731
  N         5.8410997845        8.2987863229       20.0711119789
  O         6.3705313396       10.0158382039       18.7449095012
  H        16.5914885427        4.6407064355        4.8528144664
  H        17.3263529103        6.2500348248        5.3619752033
  C        17.7519580458        4.5292962579        6.6842519042
  H         4.8905176108        5.5403095595        1.2559359497
  H         5.5450448968        5.9639564018        2.8775722197
  C         5.6081338729        7.6537767279        1.5950367632
  C        12.9116489169       -0.0759754476       -2.7680909010
  S         5.2785576545        6.0356362738       21.4130651119
  C         5.6705405903        9.0880155271       21.2985187427
  H        17.0956450637        3.8491995572        7.2345624684
  H        18.3750517070        3.8350819976        6.1409639468
  C        18.5563414163        5.4605915386        7.5285502313
  H         5.9169362676        7.9329250821        0.5675157175
  H         6.2447222761        8.1661957643        2.3168810014
  C         4.1668694947        8.1235551174        1.7954967933
  H        12.7238636893       -1.1132531723       -2.7686849171
  C        13.4942454340        0.2795259142       -3.9568573040
  H         5.1634803238        8.5905961105       22.1630087987
  H         4.9886941034        9.9439189494       21.0106733625
  C         7.0950441035        9.6446451298       21.7887491591
  H        18.6592641210        4.9645331444        8.4850553037
  H        18.0098734766        6.4084800220        7.7618264135
  C        19.9400347798        5.8468464890        6.9190472363
  H         3.7325275708        8.3247397876        0.8178753214
  H         3.5955700408        7.3317015185        2.1655959568
  C         4.0720446320        9.3383952754        2.6173175255
  S        14.0591993502        1.8383154642       -4.4086879955
  C        13.5824636160       -0.7164484041       -5.0300191746
  H         7.3140198023        9.4643558441       22.9061859082
  H         7.0581512979       10.6958387612       21.5001421818
  H         7.9710173516        9.1831643697       21.2280904327
  H        20.6159848071        6.1018615718        7.7058348530
  H        20.3334355223        5.1108800127        6.2090388317
  H        19.8549359469        6.8262010070        6.3610405804
  H         5.0739152385        9.8384485498        2.7327345679
  H         3.5737135324       10.0907011661        2.1182525078
  H         3.5688482994        9.2983712252        3.5781161749
  C        14.4235774909        1.1366002952       -5.9751181680
  N        14.1576581208       -0.1628461091       -6.0870855783
  O        13.0318809783       -1.7923515813       -4.9810314462
  S        14.6354488792        2.1340297239       -7.3941130989
  C        14.2474351286       -0.8875445001       -7.3624099143
  H        14.8456956843       -1.7771774814       -6.9727098426
  H        14.8809392151       -0.3919083859       -8.1174174591
  C        12.8134213667       -1.0803447622       -7.9666739270
  H        12.7568423683       -2.0367155686       -8.5043192776
  H        12.7207288662       -0.3572669764       -8.7681119131
  H        11.9652085776       -1.0301426125       -7.2589174495
