352
 i =    83100, time =    41550.000, E =        99.5028201639
  H        12.0429444490        6.9682689416       32.3567277554
  C        11.9527505172        5.8816972888       32.3086306123
  H        12.8082196249        5.4906794807       31.9363698969
  C        10.8411240618        5.6511910422       31.3444677957
  C        11.5678269572        5.4134859506       33.7067051633
  C        11.2104529013        6.0178628830       29.9502829080
  H        10.6235269897        4.6031344429       31.2176453094
  H         9.9677124818        6.2138632522       31.8458540759
  H        10.5174388998        5.1065227201       33.8036773197
  H        12.2402876643        4.5182477482       33.9860575900
  H        11.6483042620        6.1893810138       34.4833025567
  C        10.1731922003        5.7744569211       28.8452038343
  H        12.0389752332        5.3807659874       29.5752706689
  H        11.4664201024        7.0391656658       29.9083490598
  C        10.6833584398        5.5028041514       27.4513973175
  H         9.4379313960        5.1170332895       29.2328239565
  H         9.5842812786        6.6301206437       28.8138039107
  C         9.7108771505        4.9792190638       26.4610925895
  H        11.5180229624        4.8398116497       27.4097692664
  H        11.0752742180        6.4651274845       27.0093804023
  C         8.3878893822        5.8266124445       26.2083669057
  H        10.2590652446        4.7698599987       25.5452609739
  H         9.3697282115        3.9428560887       26.7788295531
  C         7.2946172018        5.0800956941       25.5329008292
  H         8.0787096804        6.2891210905       27.1167280391
  H         8.8182601024        6.5867475168       25.5756589397
  C         6.8723717843        3.7601360162       26.2173898101
  C         7.7047609987        4.3901107414       24.3218082477
  C         6.0529015314        6.0201822644       25.4091257401
  C         6.9821163390        2.6919399962       25.3532640910
  C         6.3575427265        3.4204024803       27.5142123106
  C         7.5812860997        3.0754180779       24.1370732832
  C         8.2501890495        5.0394938600       23.2267666307
  H         6.3181210997        6.8923991240       24.8584177728
  H         5.9310748185        6.2983472430       26.4440759093
  C         4.8129915033        5.3939574533       24.7255203947
  S         6.6658817828        1.1721586582       26.1806957848
  C         6.1922025531        2.0726462892       27.6158666313
  H         6.3048880375        4.0418136242       28.3557410720
  C         8.0707350675        2.4232780558       23.0963366591
  H         8.2793967630        6.1690048181       23.1696878431
  C         8.6375122009        4.4140379479       22.1153094465
  H         5.0220765291        5.1696139523       23.7461092934
  H         4.5996886411        4.4736266911       25.2471971528
  C         3.5936951381        6.3112254240       24.7358360005
  C         5.6847623199        1.2377872404       28.7982498961
  C         8.5501731546        3.0615816945       21.9973839519
  H         7.8711082143        1.3491591908       23.0140840729
  C         9.0675134168        4.8628550030       20.8551430152
  H         2.8945123716        6.1025191172       23.9364810362
  H         3.8210439107        7.3251934983       24.3807660313
  C         2.8309674042        6.3502043482       26.1063388055
  C         5.8202865150       -0.1216480001       29.0213961563
  C         5.0666892383        1.9982541365       29.8928838416
  C         8.8743144147        2.3939799037       20.6658125383
  C         9.2405919887        3.7826224959       20.0169136902
  S         9.2322181478        6.4134833751       20.1324612737
  H         2.0727401587        7.1686645416       26.0759413500
  H         3.5720391857        6.6491511546       26.7942958526
  C         2.1359908778        4.9976773252       26.5027150248
  N         6.1625811220       -1.0548961583       28.0794139317
  C         5.5309404681       -0.7492202752       30.1984398059
  C         4.7615697309        1.3783491951       31.1274472489
  H         4.8495503069        3.0130789899       29.8135735428
  C         7.5460452649        1.7227347332       20.1894055770
  C        10.1774251198        1.4630663485       20.6367127623
  C         9.6303957185        4.2557957528       18.7126694692
  C         9.6989523780        5.6825966622       18.6570086361
  H         1.5628794033        4.6191500277       25.6608007099
  H         2.8718746960        4.2405345657       26.5748552350
  C         1.3078663358        4.9659415886       27.7831934973
  S         6.2686320628       -2.5502825068       28.7520689170
  N         5.7717741877       -2.1080884862       30.2658446305
  C         5.1434532414       -0.0411905908       31.3527646351
  H         4.1894606831        2.0216193628       31.8874969267
  H         7.0369342957        1.1682080656       20.9240178037
  H         7.8488876123        0.8853178389       19.5654452719
  C         6.3832510855        2.6820671145       19.8105096295
  H        10.4028376265        1.1815667956       19.5380602741
  H         9.9786384818        0.4455075537       21.0459213274
  C        11.4774301204        2.1270922422       21.1205394538
  H         9.7027073056        3.5613681725       17.8800022142
  C         9.8665935650        6.4502102271       17.3948834101
  H         0.7341689493        4.0682153687       27.8034679434
  H         0.5996773450        5.7380412753       27.8834318042
  C         2.2296032746        5.0514055774       29.0266391920
  C         4.8610972883       -0.7068704512       32.5657922063
  H         6.6395147738        3.7129221495       19.6153738840
  H         5.6563800292        2.6848883921       20.5584117004
  C         5.8050773494        2.2077376978       18.4347650912
  H        11.2640129438        2.3904784845       22.1779456600
  H        11.5635385400        3.1189327025       20.7867732720
  C        12.8349286066        1.3332278767       20.9652927958
  C        10.0032496900        7.8557902651       17.2954793980
  C        10.0848237030        5.7025618473       16.0735551669
  H         2.8348942024        4.1948327628       29.0451253691
  H         2.8638914112        5.9416070849       28.9068355902
  C         1.4068094348        5.1410031932       30.2667589017
  H         4.8257298150       -1.7947427386       32.4851301619
  C         4.5515475931       -0.2046722616       33.7891782318
  H         6.3795212025        1.3046248114       18.1428325678
  H         5.8296387288        3.0167019339       17.7332610850
  C         4.3100779945        1.9335673462       18.4356900011
  H        12.8568178506        0.4806364637       21.6182399715
  H        12.8443522159        0.8821487169       19.9641683693
  C        13.9859836368        2.2051966076       21.3224790750
  N         9.8859226200        8.7668163007       18.3524688027
  C        10.2975190266        8.5555654987       16.1025477045
  C        10.3279845825        6.3670840858       14.8645457366
  H         9.8808330491        4.6389882870       15.9669945663
  H         0.3937413349        4.7806711798       30.2471348545
  H         1.8770800929        4.5781545814       31.0466034700
  H         1.3686732589        6.1761023948       30.6662589728
  S         4.3386439229        1.4075389601       34.3218046690
  C         4.3799254289       -1.2927787994       34.8231124535
  H         3.9662925704        2.6058420663       19.2612351312
  H         3.8448224862        2.3465900615       17.4594229761
  C         3.7959290765        0.4876056950       18.6615256643
  H        13.9423761919        3.1566958424       20.7926019541
  H        14.9061308549        1.8104885751       20.7775526421
  C        14.0876383664        2.5226537479       22.8398672466
  S         9.9452814291       10.3249826113       17.8104406765
  N        10.3846439211        9.9405911647       16.2713202501
  C        10.5877193162        7.8613652001       14.8738154702
  H        10.6493086406        5.8056730549       14.0499577484
  C         4.1120352216        0.6971880679       35.8911366943
  N         4.1358918099       -0.6298738076       35.9569912749
  O         4.5752016915       -2.5056017646       34.7189416644
  H         4.3829198996        0.0229991554       19.4549993667
  H         4.0803177012       -0.0290389377       17.7092823033
  C         2.2774535790        0.3981488288       19.0378609852
  H        13.2455339003        3.1198522516       23.1593241861
  H        14.0004562860        1.6349114333       23.4696738412
  C        15.2953709462        3.3625579532       23.1344162602
  C        10.8379677657        8.6568549054       13.7358570228
  S         3.6055342861        1.4100895031       37.5005885057
  C         4.0498396935       -1.4304243026       37.1827520943
  H         2.1553034651        1.1588579863       19.8509711805
  H         1.7741763095        0.6041018033       18.0638637549
  C         1.9950117314       -1.1014540799       19.3896695920
  H        15.1510340584        3.6359452685       24.1414964729
  H        15.1411523195        4.3312162834       22.6434834326
  C        16.6724681352        2.8014505706       22.8053028143
  H        10.5323843473        9.7161681982       13.9178402147
  C        11.2761805947        8.3494459285       12.4892671943
  H         3.2428341646       -1.1574854889       37.7815771878
  H         3.8418352054       -2.4561457356       36.9065708272
  C         5.3580273756       -1.3469258799       37.9342775766
  H         0.9696806654       -1.2795893165       19.7266799336
  H         2.7015732517       -1.4483431118       20.1625869295
  C         2.2244490185       -2.0025917335       18.1912136817
  H        16.6123742357        2.0739056957       22.0174163086
  H        17.3685240551        3.5905055867       22.5004787771
  C        17.3045271874        2.0030777349       23.9517913762
  S        11.8020870188        6.7633644482       12.0206011797
  C        11.3246850216        9.3960832008       11.4816408284
  H         5.5576958583       -2.3393931316       38.4047960484
  H         6.2351151027       -1.1427148924       37.3488422610
  H         5.3163489470       -0.5727183777       38.6906704111
  H         2.0357221741       -1.4070270695       17.3046559247
  H         1.7364953314       -2.9194854278       18.3958217519
  H         3.2709717783       -2.2928461427       18.2457579476
  H        17.3201739315        2.6364518766       24.8520714805
  H        18.3600315036        1.8365099106       23.7635454042
  H        16.7796574500        1.0822762189       23.9486625722
  C        12.0493165154        7.4916743917       10.4268001251
  N        11.7437631947        8.8133545118       10.3560797714
  O        10.9377776701       10.5387606598       11.6063303448
  S        12.6826297875        6.7941305719        8.8864684266
  C        11.7392244716        9.5273331006        9.0235914655
  H        11.9768167062       10.6292079154        9.2451107603
  H        12.4766363459        9.2839476250        8.2687973940
  C        10.4122888999        9.3843564439        8.2196234211
  H        10.3181234218       10.2177028338        7.4462813543
  H        10.3136056112        8.5006819274        7.6834298750
  H         9.5074893498        9.4418392803        8.8930978521
  H         2.3611964235        0.7432686154       12.2135526551
  C         3.1143956054        1.3833567622       12.5770946140
  H         4.0036394005        0.7995143993       12.4991628103
  C         3.2287141116        2.5170221720       11.5432016323
  C         2.9549166530        1.9311672627       13.9809594131
  C         4.4951863121        2.6526040399       10.8122975369
  H         3.0350763973        3.5343637817       11.9336300100
  H         2.4297021341        2.3165858700       10.8108775927
  H         2.5245571509        1.2695901669       14.6787550653
  H         2.2940901056        2.8083088157       14.0265437091
  H         3.9569673732        2.3380564496       14.2048463402
  C         4.9479238509        1.3548097179       10.1583673198
  H         4.3822761036        3.4716817550       10.1227663961
  H         5.2178511618        2.8343456628       11.5936495681
  C         5.6861730912        1.4402907794        8.8097648767
  H         4.0913401303        0.7093027219        9.9445011926
  H         5.6562148634        0.7176427711       10.7136588525
  C         6.8932245895        2.3882368220        8.8885100014
  H         4.9383099710        1.9435810116        8.1637505379
  H         5.9668050893        0.4365158890        8.4330479358
  C         8.1363271883        1.7087626082        9.4241375528
  H         7.0890317907        2.6010311471        7.8385992369
  H         6.6593174024        3.3718826342        9.4260710349
  C         9.3422033567        2.6304162363        9.5850331137
  H         8.4822429588        0.9675648845        8.7116384310
  H         7.9130602513        1.1477004123       10.4164003591
  C         8.9412008714        4.0033877214       10.2310961691
  C         9.6752460494        3.3349726585        8.3029323445
  C        10.6616811467        2.1474840738       10.2522278566
  C         9.0664582619        5.0930249855        9.4015269928
  C         8.4005868163        4.4031401165       11.4560056507
  C         9.5349495287        4.6767309116        8.1666071051
  C        10.2967626531        2.7193293837        7.2332429331
  H        10.4115478703        1.5667489357       11.1079766211
  H        11.1372146463        1.6116362326        9.4997490137
  C        11.6146167541        3.3099845887       10.6168942920
  S         8.4651228737        6.5984056948       10.0896329043
  C         8.2064673758        5.7757658057       11.5769460195
  H         8.1979435375        3.5834982366       12.1610179119
  C         9.9052057393        5.2969028772        7.0076881641
  H        10.3024378882        1.6290335976        7.2692589122
  C        10.6160827169        3.2872321904        6.0492239578
  H        11.1357028756        4.1903090182       11.2260255406
  H        11.9584289402        3.8074735929        9.7580824119
  C        12.8792928841        2.8113280243       11.3821503401
  C         7.6392128010        6.5066529872       12.7884565548
  C        10.4426357720        4.6796817936        5.8746879268
  H         9.7518186098        6.3652564924        7.0017834411
  C        11.0497327059        2.8946755220        4.8151767043
  H        13.3227956626        3.7907196846       11.7814431551
  H        13.6469555735        2.2865521182       10.7828014675
  C        12.4733921537        2.0212868987       12.6696711488
  C         7.6274790241        7.8919064584       12.9677503000
  C         7.3643073302        5.7288247604       14.0520057887
  C        10.8400521635        5.3355230883        4.5677662069
  C        11.1921663846        3.9790771198        3.9178437203
  S        11.3803613563        1.4082321539        4.0608656615
  H        12.1360528606        0.9718895142       12.4089543421
  H        13.3860110904        1.9852146406       13.2228042830
  C        11.5864858521        2.8074644530       13.6087125832
  N         7.8790265117        8.7748152993       11.9458556244
  C         7.3731921565        8.4966261850       14.1231181135
  C         7.0319231431        6.3357874181       15.2271294408
  H         7.2480886496        4.6687906406       13.9247850573
  C        12.0108073990        6.3347208575        4.8082840530
  C         9.7575905242        6.1112283592        3.8665454119
  C        11.5424154040        3.5732174566        2.6367432290
  C        11.7858986636        2.2208377579        2.5313864379
  H        10.5393154080        2.8312785771       13.2372368692
  H        11.9094433009        3.8251484305       13.5819004532
  C        11.6443658719        2.2420401235       15.0516585290
  S         7.7544569665       10.2970266922       12.5570947924
  N         7.3463056088        9.9307270026       14.0342891382
  C         7.0212570511        7.8012449235       15.3345646081
  H         6.9838253649        5.7896216627       16.1405036775
  H        11.6649104392        7.1108796694        5.5334452738
  H        12.2755325173        6.8628735393        3.9061211482
  C        13.2920189094        5.6342504960        5.2131067453
  H         9.4507661312        6.9839916206        4.4511160315
  H        10.2805371652        6.5506123550        3.0109869354
  C         8.5759382595        5.4242980165        3.2136528922
  H        11.6302497527        4.3830884341        1.9404714277
  C        12.0784437704        1.4644259268        1.2629450003
  H        10.5930399290        2.4486258642       15.5349013378
  H        11.8411627077        1.1426358931       15.0201753837
  C        12.7139140236        2.8383009569       16.0847730459
  C         6.8244073902        8.6027701796       16.5080112069
  H        13.1605355540        4.7862665109        5.9373349701
  H        13.5903147798        5.0860175493        4.3841195878
  C        14.2258234054        6.6650777218        5.8082679913
  H         8.1050016024        4.6599579785        3.8428039423
  H         8.9816230803        4.8510135620        2.4050990299
  C         7.5505511522        6.3710379463        2.6899672094
  C        12.0459061168        0.0655680994        1.1065534550
  C        12.3667161083        2.2216471232       -0.0281735613
  H        12.3559616467        3.8541935255       16.0543082468
  H        13.7464127679        2.7391970269       15.7121095938
  C        12.6215539397        2.0149237785       17.3816920562
  H         7.0164510083        9.6425894021       16.2963552631
  C         6.4861744293        8.2958263865       17.8105133946
  H        13.6020315832        7.3217085019        6.4032103253
  H        14.6878412286        7.3467582816        5.1083641897
  C        15.3628294522        6.0542718652        6.6547625493
  H         7.2076508403        6.8752004485        3.5475015607
  H         7.9083358336        7.2035055644        2.0686952931
  C         6.5384502046        5.6754586253        1.8455585386
  N        11.9016707412       -0.8243437749        2.1548455516
  C        12.3007568993       -0.5357044070       -0.0578998135
  C        12.4185245867        1.5593552640       -1.2880032672
  H        12.4882574713        3.2987895448       -0.0134249999
  H        12.4256400846        2.6491517954       18.1492881154
  H        13.5854001774        1.5014591342       17.5167744105
  H        11.8407974794        1.3047954766       17.3283468224
  S         6.0217902973        6.8216868180       18.4931441029
  C         6.4505774569        9.4548016302       18.7689111048
  H        15.7593276634        6.8490523698        7.2581829611
  H        14.9854474062        5.3067565086        7.3340400871
  C        16.4545752659        5.5135751885        5.7634263905
  H         6.6282113254        4.6210349440        2.0300875393
  H         6.7051875820        5.8108078943        0.8289396655
  C         5.1444636140        6.0867217985        2.2035032283
  S        11.9339723916       -2.3606838805        1.5877580875
  N        12.2462280658       -1.9254424383        0.0621821761
  C        12.4772481476        0.0824163161       -1.3339821895
  H        12.4376679932        2.2716177965       -2.0825103540
  C         6.0449571367        7.6571403047       20.0401630941
  N         6.2665628239        9.0171457446       19.9639714844
  O         6.7353684599       10.6071095026       18.4133295021
  H        16.0431204887        4.7625297907        5.1823036359
  H        16.8346637782        6.3003077377        5.1543231588
  C        17.5672141217        4.8499658585        6.6764341720
  H         4.4077162700        5.7420760592        1.4950836103
  H         5.0014312942        5.5485111373        3.1923167881
  C         4.8044143312        7.5900850235        2.3477231618
  C        12.6701991383       -0.6340655636       -2.5364225310
  S         5.9026615313        7.0150894576       21.6327182786
  C         6.3990269276        9.9464437745       21.1488230528
  H        17.0682304133        4.4570741942        7.5593749522
  H        17.9810903984        4.0000672035        6.1356494120
  C        18.6096768167        5.8891787752        7.0812416929
  H         5.2454815664        8.0524128269        3.2816937014
  H         3.7099356232        7.6460196840        2.6686396467
  C         5.0968922868        8.5003089961        1.1111831551
  H        12.2821738543       -1.6113691248       -2.4394523361
  C        13.2430259858       -0.2928729323       -3.7527212969
  H         5.5695753191        9.7757910672       21.9383650210
  H         6.2711564098       10.9794937396       20.8040158111
  C         7.8540203794        9.8870370735       21.6811135761
  H        19.1767313735        5.5944365722        7.9456346274
  H        18.1251889468        6.7891462099        7.4283729323
  C        19.6071878308        6.0892224714        5.9124940225
  H         6.0377797587        8.9780351856        1.1736866883
  H         5.0093653652        7.7888020118        0.2906188255
  C         4.1912722072        9.7578083578        0.9384326447
  S        13.7536226125        1.3552203067       -4.2222754514
  C        13.4689408582       -1.2543762624       -4.7778775476
  H         7.6931660705        9.0263948669       22.2626722918
  H         8.0407632579       10.7573131165       22.3516801423
  H         8.5644224702        9.7951515455       20.9134291571
  H        20.4871353341        6.5341658697        6.3210390757
  H        20.0309458703        5.1621613867        5.4904550573
  H        19.0241284831        6.6803162094        5.0978595427
  H         4.2472721683       10.4281958249        1.7724732947
  H         4.5336746841       10.3478299712        0.0180908516
  H         3.1357748747        9.5259934895        0.7298837014
  C        14.0318658354        0.6630327323       -5.8939338952
  N        13.9709675755       -0.7073652946       -5.8718989945
  O        13.0830300693       -2.3933630148       -4.6981982575
  S        14.6549580024        1.5406658576       -7.2840851624
  C        14.0951974161       -1.4468671232       -7.1272081665
  H        14.4513014107       -2.4636985329       -6.9321363459
  H        14.7814144331       -0.8581804694       -7.6977488964
  C        12.7703960349       -1.4830812133       -7.8964838047
  H        12.3129437037       -0.5066432755       -8.0723469046
  H        12.0687676751       -2.0947299302       -7.3181312284
  H        12.8438677858       -2.0446742252       -8.8217557288
