352
 i =    68000, time =    34000.000, E =        99.6944391592
  H        12.2174569146        6.8051997598       32.2884375949
  C        11.3728956083        6.1377165456       32.4617652270
  H        11.7088888612        5.0677123202       32.4726924500
  C        10.2657521362        6.3952403267       31.4067568798
  C        10.9342074307        6.4652794281       33.8230312198
  C        10.8870835971        6.1327116912       30.0168045741
  H         9.3742487789        5.8378274848       31.4594160317
  H         9.9182594131        7.3995019099       31.4446244760
  H        10.3731949918        7.3994180625       33.8369576610
  H        10.4503402050        5.5817549308       34.2852945200
  H        11.8858210596        6.5980177228       34.3743237052
  C         9.8994321448        6.4840051201       28.8609751027
  H        11.2309244401        5.0695376184       29.8079997811
  H        11.7303694117        6.7620884798       29.8850354435
  C        10.4625685994        6.0188767062       27.5084523955
  H         8.9026893461        6.1374578256       29.1296299602
  H         9.9035990500        7.5838994873       28.8342303505
  C         9.4488104776        5.3332250992       26.5877443570
  H        11.4013578283        5.4209875745       27.6782585254
  H        10.8138862364        6.9649608061       26.9535807398
  C         8.3248055143        6.2686302347       26.1081483841
  H         9.8852933173        4.7534304879       25.6856224870
  H         9.0203828566        4.5716585701       27.2163542524
  C         7.1442776681        5.5418233307       25.2936931542
  H         7.8180616448        6.7142413742       26.9557286503
  H         8.7477342400        7.0689774187       25.4420766502
  C         6.7881983434        4.1979007607       25.9524140859
  C         7.7274398497        4.7875734611       24.1237629991
  C         5.9161095077        6.3132827790       24.8697532952
  C         7.1280135048        3.0995819948       25.1933197686
  C         6.1053941887        3.7756256332       27.1439505001
  C         7.8028328909        3.4613393586       24.0845875458
  C         8.2701260341        5.3819464350       22.9428223127
  H         6.3342177924        7.0302345621       24.1759359335
  H         5.5696199825        6.8800114958       25.8027392917
  C         4.7762840969        5.4445559798       24.4040351839
  S         6.7714965848        1.6137870752       25.9116131691
  C         6.0323977528        2.4139713964       27.2989753264
  H         5.7802088389        4.4596306904       27.8755952596
  C         8.3430575709        2.8155402667       23.0128006891
  H         8.2359931270        6.4218995115       22.9115339749
  C         8.7325204924        4.7191589147       21.9053329145
  H         5.0343096305        4.9761684451       23.5035256962
  H         4.5359270148        4.6865657222       25.1383186444
  C         3.4829804113        6.2568658144       24.2144877129
  C         5.6886434400        1.6641037556       28.5514553894
  C         8.6928125298        3.3701445567       21.8060027198
  H         8.3913428256        1.7262015707       23.0606661436
  C         9.0774548600        5.0797864439       20.6261769731
  H         2.9043361682        5.6009689768       23.5656146838
  H         3.7981796297        7.1332803073       23.7175735627
  C         2.7146948405        6.5494959671       25.4965083301
  C         5.7672735403        0.3145540930       28.7870130174
  C         5.3824003387        2.4050862913       29.7256112210
  C         8.9852873715        2.6433437351       20.5057522332
  C         9.2535437234        4.0158302230       19.7884304428
  S         9.1949590249        6.5887332750       19.8942367818
  H         1.8176655302        7.2266700961       25.1699986007
  H         3.3016490332        6.8659416360       26.3858544129
  C         2.0915902823        5.2336011207       26.1347276427
  N         6.1334383164       -0.5967547038       27.8448866397
  C         5.5655032136       -0.2927295747       30.0123954593
  C         5.2454360572        1.8640310751       31.0173348181
  H         5.2992252382        3.4831371399       29.6231567504
  C         7.7425690633        1.9148526627       20.0237753821
  C        10.4043609186        1.8834875819       20.5809934213
  C         9.5754763040        4.4117741531       18.4871112862
  C         9.5319650275        5.7799697190       18.4081578163
  H         1.4028067532        4.8340447876       25.4292081967
  H         2.8859446362        4.4795532194       26.2332166633
  C         1.3621776187        5.5433305937       27.4163084876
  S         6.0717249195       -2.1155256654       28.4285744701
  N         5.6860041074       -1.6765100274       29.9476838094
  C         5.3425832652        0.3933677644       31.2223181170
  H         4.9443290896        2.5257961544       31.7843666965
  H         7.1751575873        1.7761256305       20.9455351945
  H         8.0164043385        0.9075118224       19.6938496823
  C         6.8443739998        2.5683550020       18.9136901350
  H        10.5434254485        1.2649929886       19.7088553647
  H        10.3064018297        1.3168223686       21.4796087994
  C        11.6532340773        2.7352375187       20.8089950892
  H         9.7958770187        3.7592465223       17.6543368461
  C         9.8451426922        6.5161353251       17.1045892485
  H         0.5829034002        4.8019632338       27.5068235494
  H         0.7820155894        6.4556255856       27.3129003472
  C         2.2395292868        5.5984634565       28.6734772685
  C         5.2684780339       -0.4022375379       32.4185256109
  H         7.3195568366        2.4664855253       17.9715301672
  H         6.7153676995        3.5790623499       19.2832200747
  C         5.4744958889        1.8289834154       18.8087832694
  H        11.4993796534        3.2992970650       21.7536764664
  H        11.7832011602        3.4355393656       20.0638005031
  C        12.9071946521        1.8457021575       20.7550062160
  C         9.9352637549        7.9219326443       17.0027436978
  C        10.2425715456        5.8521158713       15.8414383074
  H         3.0576290825        4.8767229650       28.5805803354
  H         2.6388126741        6.6689259724       28.7494534838
  C         1.3659656280        5.4737845452       29.9450896031
  H         5.6622769622       -1.4012823147       32.3108164396
  C         4.8528135169       -0.0099501400       33.6485352485
  H         4.9951776254        1.7373149735       19.8223871256
  H         5.7440679847        0.8277354048       18.4004036208
  C         4.5447433572        2.4527580642       17.8326530179
  H        12.7270984798        0.9871117007       21.4433121781
  H        12.9716353014        1.3166341693       19.7736468914
  C        14.1763504332        2.5927579099       21.1918102118
  N         9.7011206397        8.8640092729       18.0587626933
  C        10.3305718664        8.5606251594       15.7855270519
  C        10.6121216371        6.4780653815       14.6329098958
  H        10.3380645069        4.7343225801       15.8542407484
  H         0.5201131818        4.9522502133       29.5616967737
  H         1.7739104793        4.8957380484       30.7583802276
  H         1.0369725327        6.4144178759       30.3697267611
  S         4.4231514269        1.5556303167       34.1445525721
  C         4.9223299651       -1.0445627011       34.6920834741
  H         4.4604855988        3.4982644069       18.0054201365
  H         5.1346404462        2.3527754156       16.8791771950
  C         3.1705017930        1.7377754661       17.9457652829
  H        14.3674137415        3.3963734191       20.4988240665
  H        15.0225194692        1.8585840329       21.0736627840
  C        14.1844634692        3.0553804369       22.6342829560
  S        10.1802635540       10.3252123884       17.5303082134
  N        10.4569942860        9.9485495559       15.9645168779
  C        10.6663958690        7.9310486882       14.5914000695
  H        10.7928932974        5.8449620542       13.8176284909
  C         4.4459805784        0.9049512081       35.7392314416
  N         4.5498160664       -0.4741502159       35.8508623967
  O         5.3064811589       -2.1797432367       34.4630451839
  H         2.4584387113        2.5758699648       17.7574127377
  H         2.9432486227        1.4820620832       19.0031151178
  C         3.0328626434        0.4084135889       17.0932454363
  H        13.2688135722        3.5585591304       22.8307380114
  H        14.1387483355        2.1469965767       23.2681705750
  C        15.4478263612        3.7969207494       23.1027590338
  C        10.9586280042        8.7233940704       13.4403368042
  S         4.1446154927        1.7513943746       37.2222225291
  C         4.6108868065       -1.2908517743       37.0590093249
  H         2.5936539068        0.7094447517       16.0886667830
  H         3.9858618879        0.0848581610       16.7967537162
  C         2.1093087943       -0.5933203060       17.7451397498
  H        15.6478061650        3.7026408464       24.1568068798
  H        15.3035037764        4.8816828736       22.9571961363
  C        16.7561213377        3.4442577606       22.3733524093
  H        10.5767090710        9.6347983013       13.4207694187
  C        11.5137676518        8.4038773651       12.2443259630
  H         3.8649337340       -0.9509067324       37.7657833437
  H         4.3617618782       -2.2902506742       36.8604430803
  C         5.9638967897       -1.2217934455       37.7118998385
  H         1.0367294343       -0.5616428803       17.3623016881
  H         2.1173466634       -0.4351409702       18.7689457172
  C         2.5907328902       -2.0101522615       17.3669743689
  H        16.6995847148        3.3232041456       21.2837634813
  H        17.4352636322        4.2627234037       22.4237530586
  C        17.1565185406        2.0422884494       22.9780878777
  S        12.2820357278        6.8595394275       11.8587875481
  C        11.5548144961        9.3639493562       11.1218882969
  H         6.4500488169       -0.2049535420       37.7668820216
  H         5.8469490016       -1.6123758068       38.7264850627
  H         6.6191544351       -1.9937207619       37.2034789994
  H         2.1926120338       -2.3104656845       16.3578096366
  H         2.2954320296       -2.7689835110       18.0515186840
  H         3.6661209919       -2.0416968848       17.3629613837
  H        16.2650726782        1.4079847111       23.1659977189
  H        17.7564919400        2.1197691023       23.8581897270
  H        17.8108073528        1.4817772355       22.2845465081
  C        12.6749906195        7.5897460720       10.2718810192
  N        12.2979954591        8.8522238176       10.1566841882
  O        11.1413930595       10.5122728702       11.1728573152
  S        13.4474794812        6.7532703396        8.9131476351
  C        12.3480083499        9.5293115371        8.8590288772
  H        12.3361143997       10.5779957908        9.1034317924
  H        13.2259587574        9.3941541695        8.3040035248
  C        11.0873420597        9.2168387517        8.0733348271
  H        11.4434085515        8.6205841667        7.1613078190
  H        10.3738294366        8.5845534218        8.6404180095
  H        10.5796187329       10.0894100422        7.7150090665
  H         4.7047240368        1.9105793271       12.5216842225
  C         3.9078565470        2.6490830164       12.2421346857
  H         4.3706180658        3.6326730283       12.1462037931
  C         3.1415644278        2.5153508949       10.9465531929
  C         2.9024423827        2.6264031804       13.3404418347
  C         4.0992256144        2.7636660343        9.8387835278
  H         2.3448798492        3.2253533696       11.0787566972
  H         2.7616113353        1.5177676622       10.8497770737
  H         2.4017942037        1.6796712532       13.3097552461
  H         2.1811139143        3.4458257147       13.2318772055
  H         3.4345774087        2.9113982060       14.2084889368
  C         4.7185022548        1.5152149259        9.3763251695
  H         3.4472084502        3.2391612421        8.9951412063
  H         4.8335982432        3.5776474419       10.0396516015
  C         5.5163575326        1.7543517888        8.0409441284
  H         3.8960987377        0.8440921394        9.1862751480
  H         5.3801721371        1.0948716999       10.1458254883
  C         6.6948822166        2.7300582539        8.2189540163
  H         4.8970209324        2.3385766120        7.2860860489
  H         5.8381380494        0.8808750556        7.5509283141
  C         7.8049739242        2.0531438392        9.0122983264
  H         7.0589349401        2.9554070077        7.2457127803
  H         6.5310633962        3.7477565644        8.5487063876
  C         9.1598631684        2.8081497982        9.0473966244
  H         7.9839382205        1.0803121442        8.5511711165
  H         7.5666777678        1.7441453501        9.9954793222
  C         8.9230169343        4.1442285660        9.6928754507
  C         9.5987010283        3.5416298808        7.8023257746
  C        10.3080444443        1.8991262025        9.6278847552
  C         9.0023329151        5.2209000726        8.8438549394
  C         8.5734382040        4.5926546381       10.9764637201
  C         9.4967940959        4.8435138054        7.6351387664
  C        10.1520770515        2.9476220050        6.7342192932
  H        10.0807494594        1.4915505169       10.5658927186
  H        10.3648041832        1.0972909568        8.9431987901
  C        11.6958037781        2.6706684220        9.7204209178
  S         8.6806445987        6.7630985409        9.5085147023
  C         8.2868913921        5.9177774368       10.9857906275
  H         8.5097326983        3.8469246108       11.7518541165
  C         9.8412777219        5.4924845917        6.5172797056
  H        10.1814786372        1.8600924144        6.8495195315
  C        10.5619192696        3.5560598157        5.5881158250
  H        11.4978509940        3.7209748380       10.0227634030
  H        12.1963395542        2.6356914207        8.7219179616
  C        12.5842305937        2.1883435164       10.8152238874
  C         7.7323960115        6.6482773412       12.1467496224
  C        10.3875242423        4.8780345600        5.4157480470
  H         9.8147535019        6.5980971894        6.5414577054
  C        10.9768499702        3.1038132291        4.3704570356
  H        13.5655896292        2.4951544486       10.4927265193
  H        12.5674775651        1.0628599795       10.8110464729
  C        12.2345762631        2.6477419298       12.2209572887
  C         7.6275196102        8.0248852091       12.4506122138
  C         7.3164433334        5.8148174976       13.2551199968
  C        10.8132717814        5.5892918965        4.1659066461
  C        11.0818172472        4.2331041966        3.5238892910
  S        11.1651969524        1.5573852390        3.5983514307
  H        12.0297347836        3.7175363096       12.1739942430
  H        11.3969322804        2.1119462204       12.6879815623
  C        13.3861056697        2.4101960562       13.1886451014
  N         7.8075077922        9.0345587962       11.4847038201
  C         7.3874281262        8.4917192605       13.6954975469
  C         6.8231468179        6.3039469581       14.4579999535
  H         7.1395346574        4.7966444002       13.0005162487
  C        12.1374335428        6.3697954510        4.2806957665
  C         9.7467911756        6.4442621562        3.3621800698
  C        11.5963761842        3.8329382917        2.2675568372
  C        11.5234227799        2.4147472808        2.1041526423
  H        13.9502009550        3.3177196194       13.3872851493
  H        14.0321484830        1.6767649944       12.6880645271
  C        13.0902271115        1.8552212711       14.5516009498
  S         7.7916679357       10.4657464387       12.2981600006
  N         7.5214079189        9.8568033225       13.8245714301
  C         7.0762996282        7.7076099830       14.8159575305
  H         6.4842376557        5.6440982722       15.1999038963
  H        11.8455614398        7.1495452835        5.0213441803
  H        12.4275846972        6.7418952569        3.3071427802
  C        13.3681607515        5.5876974835        4.7943379842
  H         9.5803038280        7.3659823436        3.9344754338
  H        10.1042456107        6.8192714948        2.3810741117
  C         8.5461446908        5.6267935946        3.0196832276
  H        11.8027910669        4.6074390983        1.5924008551
  C        11.8086892807        1.8059291818        0.8007768113
  H        12.2528325238        1.1164732851       14.4652308244
  H        13.9953801456        1.2790060524       14.7835121038
  C        12.6689936771        2.7782457851       15.6849317733
  C         6.8155773557        8.3163996327       16.0309555452
  H        13.0254151073        5.0693489695        5.6856409978
  H        13.7537136034        4.8119712312        4.2683564015
  C        14.5729338749        6.4216332852        5.2701752710
  H         8.1095418012        5.3457225797        3.9845465705
  H         8.8682471042        4.7607098844        2.4679977925
  C         7.4527787345        6.4022165001        2.2557943000
  C        11.8872576919        0.4141704195        0.5466275814
  C        11.9409386387        2.6621073056       -0.3880420975
  H        11.8368428508        3.3819308631       15.3508898697
  H        13.4294365209        3.3826666077       16.0718563225
  C        12.1479290042        1.9603010982       16.8490909787
  H         6.9931595767        9.3690855801       16.0339154063
  C         6.5330159516        7.8341819559       17.2806112574
  H        14.1204845500        7.0443429054        6.0597854238
  H        15.0540289228        6.9235340099        4.4548837282
  C        15.7697888245        5.5417672514        5.7698352153
  H         7.2030549655        7.1725364162        2.9539100615
  H         7.8704566448        6.9393521248        1.3321656087
  C         6.2607584902        5.5605945256        1.9525312464
  N        11.8045377598       -0.5086879803        1.5632525354
  C        12.1960036434       -0.1112191279       -0.6937821516
  C        12.2436224328        2.1390845523       -1.6475177781
  H        11.9370617921        3.7035957071       -0.1325387491
  H        13.0492620039        1.3455429131       16.9827033115
  H        11.2420651964        1.4056768447       16.5750799836
  H        12.0557312546        2.6078519716       17.7334018199
  S         6.2238332629        6.2166274448       17.6883338860
  C         6.5164908561        8.8298119658       18.4214147770
  H        15.4799604535        4.8964289932        6.6345561685
  H        16.0979932555        4.9519559537        4.9142800759
  C        16.9751955933        6.3453214818        6.1967377823
  H         5.8785582537        5.2110788663        2.9056575836
  H         6.5235116972        4.6932506595        1.3701798786
  C         5.1708690225        6.3198452366        1.2030166499
  S        11.9860719035       -1.9679063643        0.8584173832
  N        12.3727526397       -1.4382042233       -0.6760022392
  C        12.4289757244        0.6888010522       -1.8619007127
  H        12.3579144923        2.8928198058       -2.4312961752
  C         6.0058545682        6.8569557076       19.3542544514
  N         6.0925689775        8.2024823405       19.4727324643
  O         6.7085096339       10.0164519292       18.3182910218
  H        17.2336588846        7.1134898053        5.4139852174
  H        16.6496973451        7.0667761883        6.9411947035
  C        18.2024433977        5.6252227496        6.6748476144
  H         5.6761432334        6.9851483075        0.4900032493
  H         4.6084393825        5.6233006110        0.6079708171
  C         4.2086989133        7.0006055358        2.2042372845
  C        12.8113992255        0.0143318030       -3.0097675418
  S         5.5938684939        5.8624289788       20.7263500664
  C         5.9593330148        8.9535141799       20.7201496946
  H        17.9415767575        5.1715050711        7.5864356946
  H        18.2741492205        4.7435364125        5.9088878915
  C        19.4678451590        6.5119718396        6.6577367124
  H         4.7429201806        7.2548177891        3.0456540724
  H         3.4550845254        6.3702032886        2.5367254439
  C         3.4631675441        8.2280448488        1.6563790311
  H        12.4565732960       -0.9897659624       -3.0787714879
  C        13.3297488144        0.4052046220       -4.2159758428
  H         5.4239902955        8.4056713912       21.5063182341
  H         5.3217426985        9.8367366650       20.5672246663
  C         7.2259145049        9.4637407264       21.2598746937
  H        20.2986026399        6.1248328747        7.2295824473
  H        19.2679827191        7.4127139273        7.1762992094
  C        19.9365535899        6.8135059251        5.2584242242
  H         2.9320720247        7.9924122008        0.7151604009
  H         2.7727779326        8.5392255865        2.4388981362
  C         4.5247957064        9.3098089511        1.3639473583
  S        13.9164137279        1.9817881110       -4.5557899233
  C        13.3795679896       -0.5595048125       -5.3356677086
  H         7.6944451565        8.6760940619       21.8425623016
  H         6.9465380338       10.2478701766       21.9919305059
  H         8.0322821132        9.8185834208       20.5615696601
  H        19.4691447782        6.2048522471        4.4911066301
  H        19.6364671812        7.7965733538        4.8990892547
  H        20.9987387975        6.5645357554        5.2058943532
  H         4.9212225499        9.8103583709        2.2529320146
  H         5.4342230044        8.9429167211        0.8609667871
  H         4.1398479130       10.0411506468        0.6865148758
  C        14.5220698059        1.3316749362       -6.1130140781
  N        13.9706651383        0.1021039196       -6.3993821634
  O        12.8619275547       -1.6591123020       -5.2629263458
  S        15.2206563003        2.3238792176       -7.3581139269
  C        14.0797503638       -0.6732139902       -7.7066687060
  H        14.3740626438       -1.6892294323       -7.5370209407
  H        14.8542259934       -0.1864375314       -8.3468230298
  C        12.7875295669       -0.6602915613       -8.4437960413
  H        12.7826422194        0.2707688856       -8.9955723431
  H        11.9067146395       -0.5334931322       -7.7934962669
  H        12.5190321127       -1.5169734201       -9.0729902096
