352
 i =    31100, time =    15550.000, E =       100.7340492863
  H        10.4629597391        4.5743117814       31.3064089208
  C        10.6142459163        5.4405965907       31.9415178327
  H         9.7129388777        5.8664012375       32.3761347678
  C        11.2569449247        6.4784067519       31.0847147636
  C        11.4776440309        5.0904467684       33.1221498002
  C        11.5733422192        6.0342424713       29.6207374361
  H        10.4821186126        7.2643172945       31.1147344860
  H        12.1907263372        6.7669964716       31.7065855726
  H        11.0002147250        4.4378876020       33.7495740384
  H        12.4111926884        4.5131246820       32.7712669663
  H        11.6185579077        6.0005385491       33.6827271797
  C        10.3583479431        5.5620203858       28.8488109490
  H        12.2196532368        5.1547446367       29.5228387604
  H        12.0358880120        6.8351749299       29.0134519142
  C        10.7117712735        5.5476148041       27.3732143661
  H        10.1623514085        4.5145413211       29.1131790575
  H         9.5279889424        6.1403148630       29.0903021952
  C         9.5642462693        4.9309883353       26.5117496013
  H        11.4928490342        4.8104957058       27.3181346051
  H        10.9621864861        6.5337533685       26.9619141162
  C         8.3303194870        5.8223792071       26.3715453495
  H         9.8112194838        4.6130070200       25.5200928922
  H         9.2000704891        3.9276843713       26.8754594077
  C         7.1229041659        5.1711721291       25.6971168886
  H         8.0588188197        6.1673956638       27.3783910967
  H         8.6226470817        6.6766011982       25.8270586071
  C         6.6694033703        3.8702218283       26.3094492476
  C         7.4737899361        4.5140132176       24.4192163232
  C         5.9192956811        6.0951393348       25.4697923692
  C         6.7588500058        2.8052930682       25.4859309111
  C         6.1908574922        3.4879482758       27.5805213401
  C         7.2531146291        3.2352089550       24.2604224077
  C         7.8882856403        5.1128227909       23.2659594321
  H         6.1628583075        6.9554155973       24.8056831708
  H         5.6834116003        6.4644547653       26.4874277582
  C         4.6506822601        5.4083520047       24.8778283215
  S         6.2441617420        1.3498454292       26.1633159935
  C         5.9849859504        2.1650422231       27.6532477784
  H         6.0548075982        4.3005148543       28.2773157873
  C         7.6609394356        2.5256470606       23.1351028647
  H         8.0972243983        6.1879706190       23.2992517300
  C         8.3013577716        4.5189435763       22.0985775480
  H         4.8554526748        4.7809602860       24.0265844600
  H         4.2607321452        4.6948442017       25.6114674706
  C         3.4949173636        6.3243974906       24.5614455407
  C         5.6275195675        1.4663038027       28.9585524079
  C         8.2143224139        3.1606254630       22.0165488970
  H         7.5344854767        1.4806331370       23.0513795217
  C         8.8767259429        4.9284302886       20.9061843042
  H         2.8491192778        5.7014197794       23.8611455002
  H         3.9064153853        7.2184966244       24.1631840287
  C         2.6616846562        6.6206349318       25.7988447941
  C         5.6967966593        0.0954255052       29.2042296603
  C         5.2002851522        2.2722354946       30.1333807646
  C         8.6271585346        2.3857636233       20.7353701561
  C         9.0091309172        3.7770888607       20.0589466666
  S         9.2315538272        6.3365288383       20.0869737633
  H         2.0944827513        7.5389190389       25.6719897683
  H         3.3914968041        6.7021917627       26.5884416349
  C         1.7307818260        5.4048502899       26.0961340046
  N         6.0474960433       -0.8558628752       28.2656872108
  C         5.3924943502       -0.4528052443       30.4175565277
  C         4.7839944863        1.7127363784       31.3308660807
  H         5.0834108133        3.3109240259       30.0688572503
  C         7.3983785625        1.6420867334       20.0009774855
  C         9.9119335528        1.4374921170       20.8447046831
  C         9.4619949505        4.1215164715       18.7248020636
  C         9.5532122653        5.4820689994       18.5769154907
  H         1.0900943061        5.1460414204       25.2646245801
  H         2.3811432786        4.5068517521       26.2797326327
  C         0.9237222654        5.6801707652       27.3666610830
  S         6.0385819737       -2.3782214048       28.9044346721
  N         5.4657540773       -1.8629595603       30.3572529573
  C         4.9817293748        0.2230721886       31.5542718677
  H         4.4651339709        2.3021560851       32.1426548385
  H         6.7185412277        1.1898485546       20.7350633945
  H         7.9291110700        0.9547949730       19.3345695016
  C         6.4648123460        2.5349168883       19.2348775285
  H         9.9967484746        0.8923816910       19.8875179454
  H         9.7768916319        0.7438921885       21.6276203249
  C        11.2403875934        2.1929010418       21.2488612651
  H         9.6205785426        3.3320498444       18.0957419293
  C         9.8201647348        6.2014986175       17.2875173402
  H         0.1956430509        4.8973926722       27.3494884831
  H         0.3514698227        6.6150985299       27.3352841687
  C         1.7195330600        5.4771198833       28.6176416740
  C         4.6736845374       -0.4429795682       32.7666670260
  H         6.9608780483        3.2680591084       18.6360472206
  H         5.8255399214        3.1628468104       19.8850697294
  C         5.5638719535        1.7239438601       18.2312000343
  H        11.0573298028        2.7259210765       22.1568532543
  H        11.5004071698        2.9595637154       20.4969530736
  C        12.3741399683        1.1811080405       21.4503558135
  C         9.9814400081        7.6183104058       17.1648105649
  C        10.1792490231        5.4248514380       16.0698887388
  H         2.2851019836        4.5714565793       28.6068236443
  H         2.5970270152        6.1832800734       28.7163962365
  C         0.8722029234        5.6149526620       29.8912858211
  H         4.7061460761       -1.4666599011       32.6535396407
  C         4.4197102453       -0.0320193846       34.0293531165
  H         5.8723209535        0.7175001201       18.1488642693
  H         5.6654476218        2.1519315841       17.3251836024
  C         4.0727897464        1.8090304782       18.6743570147
  H        12.2759426144        0.4409325527       22.2364768860
  H        12.5372916087        0.6726228386       20.5071559364
  C        13.7419413316        1.8475790222       21.6564957957
  N         9.6892481024        8.5075231901       18.1881369275
  C        10.4004626711        8.2496393661       16.0584379577
  C        10.5416971440        6.0730334773       14.9457937735
  H         9.9719290971        4.3312315200       15.9938512641
  H         0.1823688270        4.8536853803       29.9584709438
  H         1.5801300120        5.6199799479       30.7019320256
  H         0.3232487796        6.5409957542       29.7542657681
  S         4.2226557700        1.5647483391       34.5936321586
  C         4.4868617838       -1.0641609776       35.0508073165
  H         4.0093742357        2.4700277151       19.4799378979
  H         3.4783950841        2.3409460104       17.9375696764
  C         3.3710141606        0.4443692397       18.9779695067
  H        13.6978955230        2.7983356320       21.0543429257
  H        14.5158235041        1.1559333457       21.3432439513
  C        13.8236552691        2.3021719517       23.1625915135
  S         9.7763740537       10.0311549707       17.6581443075
  N        10.3306841882        9.6581641172       16.1327872068
  C        10.8216814347        7.5173763325       14.9178230821
  H        10.8912751441        5.4827333156       14.0758677460
  C         4.0463356312        0.8502083218       36.1765199074
  N         4.2214187958       -0.4661101484       36.2365141540
  O         4.8203471005       -2.3068402488       34.9331815417
  H         2.3707057165        0.6145297488       19.4218716382
  H         3.9860137557       -0.1039351507       19.7130933935
  C         3.0475405845       -0.4053706874       17.8134784482
  H        12.9845513512        2.9671675746       23.3942566856
  H        13.5531419455        1.4418307554       23.8137744443
  C        15.0572542548        3.1000079479       23.5192537004
  C        11.1638688083        8.3227684145       13.8027698518
  S         3.9073511908        1.7410244787       37.6890928910
  C         4.3089923704       -1.2574300118       37.4729973706
  H         2.3853335921        0.1967113480       17.2255266406
  H         3.8783309955       -0.3719848095       17.1327529482
  C         2.5508003651       -1.8380091356       17.9848713165
  H        14.8458887192        3.6540791675       24.4952050431
  H        15.2182834477        3.8022636460       22.6630672481
  C        16.3324355236        2.2310752625       23.7355108291
  H        11.3116147885        9.3959637324       13.9253393327
  C        11.5777313071        7.8867509312       12.5791808399
  H         3.7817601391       -0.8452921959       38.3534945173
  H         3.8897419523       -2.2442048074       37.3127646977
  C         5.8291008687       -1.4490127397       37.8432206205
  H         1.5988895109       -1.8177975111       18.4227684203
  H         3.2238830532       -2.3632743014       18.7051305465
  C         2.5714319779       -2.5682535396       16.6607357481
  H        16.8889776704        2.5600169445       24.6137440449
  H        15.9722714271        1.2413737590       23.9742706989
  C        17.2025950916        2.0685853400       22.5127424535
  S        11.8759170249        6.3236481985       12.0021390765
  C        11.6772383252        8.9721842381       11.5764497114
  H         6.3187107907       -0.5733032666       38.2783765880
  H         6.0421645993       -2.2308970685       38.5894401520
  H         6.4530915213       -1.7046879484       36.9340640766
  H         2.0563750709       -1.9530892846       15.8893259236
  H         2.0124405829       -3.4983468357       16.8288166966
  H         3.6578658212       -2.8188752387       16.3918385205
  H        17.4669658721        1.0444776985       22.3309000335
  H        18.1031714005        2.6749353463       22.7839244055
  H        16.7254021488        2.4373718606       21.6055357206
  C        12.2992059436        7.1426286886       10.5021943415
  N        12.1328722664        8.4803200442       10.4086609620
  O        11.5283779830       10.1945250959       11.7695370472
  S        12.8129332482        6.1782455054        9.0993607935
  C        12.2148160260        9.3334843107        9.2345228088
  H        12.4154019486       10.4021676566        9.4511502424
  H        13.0066255440        9.0008314648        8.6136466732
  C        10.9598665113        9.1908930678        8.3902013397
  H        11.0951282052        9.7073188202        7.4193271299
  H        10.6618435672        8.2083305765        8.1868009761
  H        10.1230931512        9.7010856769        8.9010895987
  H         2.6787930295        1.8113165133       13.8907910284
  C         3.5442512863        1.9754696498       13.2239973031
  H         4.0023687559        0.9505351265       13.2139891800
  C         3.1461897238        2.3631380065       11.8013991794
  C         4.2588239329        2.9932180886       14.1064351136
  C         4.2849501319        2.4158744754       10.7535083918
  H         2.6690804171        3.3377701575       11.9222388701
  H         2.3279943312        1.6636412721       11.5291825415
  H         3.5161334369        3.6355243983       14.5171803312
  H         4.6854089150        3.8330672773       13.5351441194
  H         4.9333053848        2.5738047742       14.8464280205
  C         4.7002117662        1.0931464498       10.0813332774
  H         4.1543737226        3.1036884431        9.9629122351
  H         5.1617128302        2.8092143908       11.2304984426
  C         5.3593117018        1.3146982701        8.7224611032
  H         3.9341265591        0.3889357501        9.9966111079
  H         5.3965604285        0.5550125493       10.6554036046
  C         6.5794358459        2.2825205944        8.7689304705
  H         4.6532959405        1.7479909279        8.0478242000
  H         5.5275056882        0.4560863743        8.1071930167
  C         7.9387097378        1.7219242039        9.1716809681
  H         6.6434529557        2.8302626841        7.8746019925
  H         6.3967033461        3.0600458019        9.4980876395
  C         9.2052919455        2.6443294571        9.3541511487
  H         8.1390445192        0.8661164859        8.5369397379
  H         7.7430580151        1.3194280775       10.1852100822
  C         8.8990375330        4.0105976862       10.0091469252
  C         9.6080322714        3.4163740400        8.0795793366
  C        10.4448857814        1.9293910638       10.0338601467
  C         9.2280854826        5.1148235642        9.2279547845
  C         8.3471722492        4.4530715782       11.2534372120
  C         9.6067434222        4.7515277064        7.9668239108
  C         9.9835996985        2.7205379405        6.9549671939
  H         9.9809192823        1.3394336561       10.8196381737
  H        10.9273361133        1.3007205864        9.2572796491
  C        11.4516187496        2.9034120433       10.7503599168
  S         8.8955729751        6.6521833120        9.9594220404
  C         8.2634141628        5.7961683704       11.3494008425
  H         8.1109076719        3.6644117693       11.9531245127
  C         9.9702413474        5.3517786775        6.7941164035
  H         9.8946906831        1.6362845019        6.9806061735
  C        10.3359162122        3.2845965337        5.7964958952
  H        11.0373233385        3.6356942398       11.3613102831
  H        11.9047289534        3.5968123064       10.0004575192
  C        12.5309931979        2.2477669426       11.6214477188
  C         7.7722767182        6.5402126094       12.5349704489
  C        10.2655382051        4.6335702526        5.6535634977
  H         9.9151860179        6.4360107183        6.8142787769
  C        10.8003357514        2.8309456692        4.5881351354
  H        13.4486987576        2.6973997602       11.5790460666
  H        12.8666762637        1.2543500633       11.2484333775
  C        12.1200248929        1.9058861082       13.0333227601
  C         7.9208703599        7.9304800137       12.7816897155
  C         7.1435415905        5.7807611685       13.6231797183
  C        10.6612054186        5.2423474326        4.3859776825
  C        10.9411092360        3.9405057125        3.7404737524
  S        11.0500603975        1.3169697563        3.8450555280
  H        11.3941866174        2.6327993220       13.2041176884
  H        11.6440481948        0.9784934261       12.9418681254
  C        13.1414485576        1.8290498298       14.2119181390
  N         8.4705176049        8.8570479620       11.9059042447
  C         7.5464370750        8.5025111042       14.0093152042
  C         6.9011369158        6.3703297534       14.8952557952
  H         6.9119920985        4.7082660173       13.4742961722
  C        11.9893269443        6.1011921138        4.4380071972
  C         9.3923710209        6.0170852793        3.7119499325
  C        11.2721781285        3.4731181973        2.4427018818
  C        11.3147046083        2.1234114715        2.3710489722
  H        13.1153266683        2.8085926746       14.6850472558
  H        14.1280263787        1.4715582377       13.7740266147
  C        12.8194654187        0.8231369593       15.3636371617
  S         8.6192509472       10.3126704340       12.6592101834
  N         7.7992183194        9.9195965308       14.0086029889
  C         7.0176982805        7.7886668500       15.1547963308
  H         6.4633695585        5.7437786515       15.6590937845
  H        11.8627457300        7.0552917938        5.0053815558
  H        12.2632311257        6.3772922689        3.4045253410
  C        13.2300494391        5.3327175595        5.0444715136
  H         8.9352858284        6.5848327001        4.4946041828
  H         9.6097576600        6.6891836489        2.9129453533
  C         8.2722657391        5.0254792311        3.2092750338
  H        11.2972901703        4.1457654517        1.6136494287
  C        11.7088015587        1.4048431214        1.1135055516
  H        12.5183188572       -0.1450799053       15.0467302933
  H        13.6736465718        0.9152727907       16.0401056217
  C        11.6253825644        1.4746339537       16.1132261009
  C         6.7110963931        8.3514564829       16.3971974917
  H        13.0089590803        4.8072027531        5.9354671453
  H        13.6490622886        4.5856473714        4.3183842380
  C        14.3808522410        6.2411114770        5.3318573397
  H         7.7121496059        4.5759549609        4.0647258523
  H         8.6581950354        4.2217839677        2.6735861198
  C         7.2428374175        5.6097477908        2.2971747098
  C        11.8027910024        0.0371660592        0.9158512625
  C        12.1113697547        2.2026838966       -0.1137990892
  H        10.7269864941        0.8557041124       16.3086723606
  H        11.1792428374        2.2651782270       15.5257680935
  C        12.1851421097        2.0293010647       17.4511468240
  H         6.7521117785        9.4131537098       16.2689925068
  C         6.3490257178        7.8345587272       17.6315694511
  H        14.0610915690        6.9572027439        6.1165951140
  H        14.7270652513        6.7111088496        4.4176380185
  C        15.5290159900        5.3683572252        5.8996300981
  H         7.7151650249        6.1666761836        1.4609151071
  H         6.6924665041        4.7739580864        1.9131293284
  C         6.2522681568        6.5417262219        2.9781488759
  N        11.4109625001       -0.8861848069        1.8181196663
  C        12.1084909638       -0.5288338099       -0.2939321463
  C        12.3784633339        1.6704145770       -1.3573296798
  H        12.0791594710        3.2362043655        0.0738816979
  H        11.3430553567        1.9942469683       18.2581604259
  H        12.4843691032        3.0213576365       17.3667364781
  H        12.9130922803        1.4142168682       17.8860634373
  S         6.2284679816        6.2128872288       18.0787905323
  C         6.1907958661        8.8418941437       18.7277448216
  H        15.0722442932        4.6953555316        6.6535377793
  H        15.9760311100        4.7485090605        5.1484145720
  C        16.5857022584        6.1070040503        6.7049487227
  H         6.7441558583        7.4092043625        3.5117269635
  H         5.5510336605        6.0172662403        3.6682694124
  C         5.2414325905        7.1732278539        2.0896103252
  S        11.7518689430       -2.3380382412        1.1940424970
  N        12.0425741296       -1.9204606960       -0.3101989904
  C        12.4555429592        0.2160427127       -1.4734171041
  H        12.6249151599        2.2820236682       -2.2111324200
  C         5.7412991219        6.7641401529       19.6347347132
  N         5.8556796957        8.1135612203       19.8195590619
  O         6.4235817104       10.0316500594       18.5881645556
  H        17.1117196519        6.9101682670        6.1958837195
  H        16.1504714364        6.7158006633        7.4768181289
  C        17.5526702528        5.1715161365        7.3544700915
  H         5.6986408236        7.9047907763        1.4799205417
  H         4.7739558202        6.5310933064        1.4119240986
  C         4.0703438696        7.9440582303        2.6889083882
  C        12.7587179226       -0.5628590237       -2.6343844577
  S         5.2890540608        5.7126303322       20.9686548813
  C         5.8286099895        8.7982240557       21.1226291493
  H        17.1235209109        4.8254810806        8.3179401787
  H        17.7202278770        4.2263971417        6.7898041601
  C        18.9040073085        5.7967893210        7.6709237906
  H         4.2884747431        7.9767653831        3.7313710719
  H         3.1923011661        7.3160718676        2.6831165405
  C         3.8505446053        9.3999939168        2.1546578277
  H        12.6834522141       -1.6402347482       -2.6110804671
  C        13.1953227610       -0.1913704301       -3.8833930707
  H         5.4567995105        8.1511611631       21.8999773696
  H         5.0796526040        9.5806421403       21.0324417971
  C         7.2503505511        9.1738881418       21.4818848233
  H        19.4906366558        5.1567450122        8.3876620593
  H        18.6482980083        6.7801211893        8.0627371517
  C        19.7262629367        5.9855982399        6.3584261544
  H         2.9311079057        9.9123786568        2.5356922128
  H         4.6527641783       10.0186326997        2.4944785330
  C         3.6297295325        9.5260716247        0.6886027324
  S        13.7981995569        1.4282546590       -4.2627106930
  C        13.3648846040       -1.1921048446       -4.9894395170
  H         7.3454540939        9.5113193803       22.5207366389
  H         7.5963049918       10.0416978916       20.8762982282
  H         7.8614567809        8.3702795831       21.1975797391
  H        19.0844227574        6.4894863146        5.5955909045
  H        20.6963678754        6.5482309178        6.3748860318
  H        20.1007646780        5.0832300937        6.0070482941
  H         4.1743700656       10.4183711531        0.2703678231
  H         3.9368644299        8.6806799572        0.1580310228
  H         2.6083721675        9.6615272708        0.3378539851
  C        14.2211736486        0.7722607192       -5.8638737963
  N        14.0397107453       -0.5449597661       -6.0242937898
  O        12.9611895149       -2.3377840599       -4.9999052015
  S        14.8733672207        1.7270248640       -7.1990432955
  C        14.2726825453       -1.3912751846       -7.2822085254
  H        14.5138837816       -2.4551384062       -7.0131557177
  H        15.0289558289       -0.9845602454       -7.8728564323
  C        13.0142361107       -1.3791383459       -8.0725834441
  H        12.4912470872       -2.2666404691       -7.9379252324
  H        13.2789553111       -1.4326342284       -9.1067572990
  H        12.4031151022       -0.4896106472       -7.9147085965
