352
 i =    34800, time =    17400.000, E =        96.9779581833
  H        10.1640636510        4.8221409436       31.6549463686
  C        10.6031016714        5.6579063640       32.1803411852
  H         9.6903995994        6.2073196383       32.3575508137
  C        11.5708897542        6.4406991529       31.2280218046
  C        11.3652084982        5.1001456849       33.4232411316
  C        11.7287563658        5.7232899368       29.9961296102
  H        11.0226849111        7.3621746857       31.2421289029
  H        12.4933282380        6.6748820251       31.7490654143
  H        10.7066234973        4.8181082317       34.2755162518
  H        11.9001581592        4.2510910991       33.1186343041
  H        12.0811493910        5.9134328277       33.5953009968
  C        10.4193215561        5.7455474772       29.1327385986
  H        12.1564023379        4.7422777611       30.1611452868
  H        12.4425528601        6.3526366257       29.3408352314
  C        10.6818082219        5.4536996500       27.5589855087
  H         9.6633618462        5.1101082801       29.5684239251
  H        10.0301468647        6.7320882610       29.2332671308
  C         9.5451890369        4.6884101031       27.0784131369
  H        11.5546449095        4.8595343630       27.3259956674
  H        10.7680101854        6.2926508740       26.8750522766
  C         8.4863506998        5.6135214867       26.4277335679
  H         9.9182349358        4.0451343023       26.2652625421
  H         9.0518033387        4.1508012733       27.9093902296
  C         7.3318668571        4.8764595085       25.7545946777
  H         7.9914390911        6.1531437416       27.1714023595
  H         8.9732342487        6.3060572719       25.7126432151
  C         6.9197356232        3.5252238843       26.4830619439
  C         7.7876705916        4.0606375078       24.5078534522
  C         6.0065431185        5.6578469378       25.6406092542
  C         7.1812989581        2.4062783771       25.6878651282
  C         6.3641348738        3.1491103178       27.6944431890
  C         7.7128848228        2.7043783698       24.3904957385
  C         8.2633577749        4.6726768645       23.3376658334
  H         6.1408490346        6.4880852472       24.9864403860
  H         5.9133288544        6.1169729330       26.6304246361
  C         4.7484067875        4.8756328907       25.1561774649
  S         6.7760099776        0.9420741845       26.3562820617
  C         6.2177572488        1.7964270213       27.7897147338
  H         6.2614782737        3.9516044174       28.4224224954
  C         8.0780703313        2.0546428178       23.2385124521
  H         8.1738632488        5.7419556867       23.3568660705
  C         8.6410563521        4.0435108016       22.1943329918
  H         5.0257412922        4.4780328746       24.1392883452
  H         4.5409475114        3.9006191088       25.7001791330
  C         3.5553754396        5.8012148012       25.1664253515
  C         5.6902520506        1.1128221041       29.0826561873
  C         8.5202002225        2.6306733561       22.0678497449
  H         7.9478097492        1.0075544289       23.2454308844
  C         9.0467340574        4.3803758022       20.8961983070
  H         2.8254022868        5.4882119701       24.4546664580
  H         3.8568634163        6.8048269982       24.7721484604
  C         2.9024573644        5.9793669397       26.5238580574
  C         5.8592374706       -0.2478631711       29.3002082652
  C         5.1407647071        1.9166230068       30.1659203894
  C         8.9671279930        1.9337081953       20.8351791768
  C         9.1762941594        3.2412372542       20.0219459742
  S         9.4316993045        5.8375228349       20.1216611441
  H         2.3838237629        6.9506556330       26.6568093914
  H         3.6171633167        5.9816001763       27.2866261654
  C         2.0383538157        4.7584729353       26.9122947647
  N         6.1004793357       -1.2008958189       28.3209112827
  C         5.6487727751       -0.8941979206       30.5216924571
  C         4.8645349785        1.2747565312       31.3936560991
  H         4.7923738918        2.9436786288       30.0845396716
  C         7.8058524603        1.2243668254       20.1470006153
  C        10.2673203688        1.1647158705       21.0586984109
  C         9.3748362471        3.6540572908       18.6931174613
  C         9.5485409990        5.0150740126       18.5884718108
  H         1.3451423232        4.7154887385       26.0854576702
  H         2.6454726844        3.9197197849       26.9238203191
  C         1.2082583787        5.0778420265       28.2098632199
  S         6.2479921352       -2.6703316344       28.9685972321
  N         5.9370227492       -2.2894274530       30.5212503221
  C         5.2517326144       -0.1726965222       31.6506645694
  H         4.3854172104        1.7280706521       32.2451666576
  H         7.4705009253        0.4738775284       20.8376978836
  H         8.0805853969        0.6122448323       19.3435461730
  C         6.5078300758        2.0031599884       19.8949085216
  H        10.7434421638        0.9051627698       20.0880069841
  H        10.0878961366        0.3050942188       21.6975987898
  C        11.4528776685        2.0759766596       21.7107738486
  H         9.4280339304        2.8618601151       17.9276825998
  C         9.8024265016        5.8047412766       17.2972836817
  H         0.3676060382        4.3857330213       28.2998978484
  H         0.5142199503        5.9123924056       28.0496676777
  C         2.1353952019        5.1563305481       29.4934753505
  C         5.0650624540       -0.8521629081       32.8389036261
  H         6.6618646646        3.0443990579       19.6936712355
  H         5.9032243410        1.9033587013       20.7992870834
  C         5.7101848706        1.4244705489       18.6481408510
  H        11.1742471149        2.6454018284       22.6111900766
  H        11.6890361677        2.8553628648       20.9970550956
  C        12.7435441050        1.2890189479       21.8624780562
  C         9.9758841167        7.2398887978       17.2147042880
  C         9.9095304987        5.1133282267       16.0119376970
  H         2.7104937592        4.2812624265       29.4392842364
  H         2.8375890205        6.0108319824       29.4728297895
  C         1.3753581112        5.3467098498       30.8047000283
  H         5.1592996976       -1.9097078970       32.7995963574
  C         4.7827577953       -0.4627407698       34.1198158933
  H         5.4704286496        0.3371100675       18.7300969710
  H         6.1745896028        1.6122199396       17.7097164701
  C         4.3947963525        2.1140090613       18.5094104980
  H        12.6922138771        0.4604385238       22.5289354274
  H        13.0453935153        0.9158380252       20.8614428131
  C        13.8777159423        2.2705885383       22.2259917968
  N         9.6677314196        8.1430118408       18.2262511653
  C        10.2563520279        7.9530452453       16.0681696809
  C        10.2450774198        5.8066924272       14.8053399446
  H         9.7635344135        4.0843282593       16.0078080167
  H         1.0315505519        4.3663642037       31.2320526575
  H         1.9216368798        5.8805063028       31.5156398892
  H         0.4329965885        5.8900972883       30.5891592135
  S         4.6321166737        1.1381589821       34.6798412690
  C         4.5342468940       -1.4744805439       35.0887159578
  H         4.4271451667        3.1203184558       18.9479781673
  H         4.2920038080        2.4662889786       17.4919749090
  C         3.1212828385        1.3413216893       18.9365862346
  H        13.5599064558        3.1585294771       22.7573661621
  H        14.4111521421        2.5105118697       21.2429984524
  C        14.9542892489        1.5052633464       23.0090672119
  S         9.9811525391        9.6408811567       17.7677486868
  N        10.3743485577        9.3281783695       16.2310710531
  C        10.4392365747        7.2717596978       14.8660887869
  H        10.5117026370        5.2539400320       13.8978985539
  C         4.3524942062        0.4095460752       36.2553898729
  N         4.2389937424       -0.9400944775       36.2788111584
  O         4.5868902467       -2.7227388303       34.8147950637
  H         2.4032599585        2.1100749028       19.0865545652
  H         3.3054665582        0.8973444350       19.9107710916
  C         2.6489475466        0.3076627615       17.9711977529
  H        14.6029762398        0.8136805577       23.7856412621
  H        15.4073379500        0.7866034003       22.3354996731
  C        16.0352542048        2.4098862404       23.6250951185
  C        10.8018298488        8.0737329210       13.7588154154
  S         4.3043729175        1.2982275936       37.7427696372
  C         4.0857374296       -1.6723470620       37.5218478326
  H         2.3578245726        0.7461978895       16.9945932976
  H         3.6196937322       -0.2106920492       17.6314453183
  C         1.6080780112       -0.5965646076       18.5318672309
  H        15.6055818181        3.0992120176       24.4248414799
  H        16.4126490487        3.0688020445       22.8605025158
  C        17.2453576231        1.6555115284       24.2408680938
  H        10.7599344867        9.1181656148       13.9165484167
  C        11.3868780588        7.8036092351       12.5571931227
  H         3.3939550263       -1.0940640568       38.1663716819
  H         3.5738412350       -2.6123793529       37.5980451534
  C         5.3682611132       -1.7396084761       38.2878539916
  H         0.6010381846       -0.1814710190       18.5448861716
  H         1.8010217582       -0.5719200802       19.6165533744
  C         1.4617203662       -2.0311448679       17.9062346634
  H        17.5751081119        2.1290668274       25.1716282127
  H        16.9791653916        0.6325703765       24.3850708948
  C        18.4531454990        1.7925293973       23.3403812307
  S        12.0157504300        6.2878356605       12.0001945130
  C        11.5831413525        8.9459936150       11.5929813733
  H         6.2535547631       -1.3156336516       37.8023946536
  H         5.3444605561       -1.2850258164       39.2909951912
  H         5.7772439292       -2.7432065626       38.4279125034
  H         1.1954439937       -1.9694043781       16.8851904739
  H         0.7043695871       -2.8314488668       18.2912836160
  H         2.4177138960       -2.6271894109       17.8768041641
  H        19.2894174824        1.5903371780       23.9835419013
  H        18.7024838119        2.8683046309       22.9809483981
  H        18.3478020564        1.0810453279       22.5444422074
  C        12.4590692554        7.2213670899       10.4593776726
  N        12.1742957694        8.5406250048       10.4312307016
  O        11.1402336301       10.0641259931       11.7338558902
  S        13.0767153108        6.6120109257        8.8610746993
  C        12.3218735106        9.3972875930        9.2392961867
  H        12.2728317932       10.3954460775        9.5642434268
  H        13.3351372969        9.1896731424        8.8548992355
  C        11.2235920857        9.1376864874        8.2317496552
  H        10.2970271125        8.9276398974        8.6606445472
  H        10.9911666475       10.0215431717        7.6411687127
  H        11.4896583120        8.3190414475        7.5392892019
  H         2.8318816249        1.4517396968       13.6808586955
  C         3.5101358096        1.6243617797       12.7804830715
  H         3.7654235273        0.6550235202       12.3551602972
  C         2.7463701199        2.3243243388       11.5948041006
  C         4.7688437238        2.3422792328       13.3067334217
  C         3.5326018727        2.5959948714       10.3394147124
  H         2.4082401677        3.2553014580       11.9263829634
  H         1.8809709901        1.8566031017       11.2963978872
  H         4.8291965951        2.4600951947       14.3899513203
  H         4.9664118700        3.3286847759       12.9463030669
  H         5.5230076033        1.6559486645       13.0864170006
  C         4.3085092158        1.3670023951        9.8507105288
  H         2.8408714880        3.0201184889        9.6149885668
  H         4.1226194222        3.3996998048       10.6423165807
  C         5.2277416713        1.5063146297        8.5639816031
  H         3.7146490926        0.4631334855        9.6636286049
  H         5.0430282541        1.1926755590       10.6000104283
  C         6.4950871260        2.4032784410        8.6971295937
  H         4.4748683655        1.9059316297        7.8627694030
  H         5.5467573087        0.4746610847        8.2102533723
  C         7.7110548982        1.7913761810        9.3447033946
  H         6.8187582685        2.8405271584        7.7009024932
  H         6.2740205078        3.2411269373        9.3098494475
  C         8.8989566687        2.7566079351        9.5020270942
  H         8.0711126467        0.8717561007        8.9332938071
  H         7.3611274179        1.5028951755       10.3087230319
  C         8.5042375024        4.0869186597       10.1694372652
  C         9.3984491405        3.4624685081        8.2890948241
  C        10.0562802164        2.0144804781       10.2380705371
  C         8.7916353801        5.1555609973        9.4049019135
  C         7.9698075385        4.4132301761       11.3992149823
  C         9.4201674257        4.8175619637        8.2317242502
  C         9.9356130751        2.8126126280        7.1862979577
  H         9.6828109136        1.4375778873       11.1413402445
  H        10.5738996850        1.2260848949        9.6178971704
  C        11.2223555583        2.8925196840       10.7999705847
  S         8.3651721076        6.6057950000       10.1059336781
  C         7.9108899968        5.7642154618       11.5232713510
  H         7.8804101878        3.6270128894       12.0928610066
  C         9.8318351463        5.4549890853        7.1136464505
  H         9.9562544467        1.7772436449        7.2849912581
  C        10.1952869240        3.4191325991        6.0341683663
  H        10.8063617229        3.6731906264       11.4627298929
  H        11.6652313080        3.5286477322       10.0299059503
  C        12.4256959601        2.2004059099       11.4044125139
  C         7.5627528892        6.4344935252       12.7785037490
  C        10.1136144945        4.7993468069        5.9449885037
  H         9.8578087127        6.4887139471        7.1085254341
  C        10.6441211389        3.0091186444        4.7935387800
  H        13.2508257239        2.8924113812       11.2844736006
  H        12.7161679399        1.3304461290       10.8275836714
  C        12.2041338650        1.7990111688       12.8969575337
  C         7.5954382182        7.8298981469       13.0208171644
  C         7.2866197565        5.5908913545       13.8981972165
  C        10.5589294534        5.4157508419        4.5834407202
  C        10.7909880573        4.0705431909        3.8944019151
  S        10.9126038180        1.4710440849        4.1103726458
  H        11.8025071046        2.6612080901       13.3914384147
  H        11.5384868341        0.9399681507       13.0547384312
  C        13.4784392152        1.4214775362       13.6804063186
  N         8.1130326139        8.7991637349       12.1823548616
  C         7.3583071858        8.3875771301       14.2752817977
  C         7.0160692327        6.1449999525       15.1555353328
  H         7.2839903761        4.5344356870       13.8433376026
  C        11.9553063844        6.0667380639        4.6101403454
  C         9.4133731531        6.2723405307        3.9999000179
  C        11.0675764519        3.6343134112        2.5852485531
  C        11.1684732303        2.2498943875        2.5680598306
  H        14.1479402050        2.2760343866       13.7963411242
  H        14.1022446736        0.6789049556       13.1062560588
  C        13.2328284016        0.7644570963       15.0347577637
  S         8.0670918983       10.2876218438       12.8688516739
  N         7.4182512154        9.7949503936       14.3384243755
  C         7.0084104134        7.6206376918       15.4399046987
  H         6.7413884947        5.4486904820       15.9268668023
  H        11.9790320201        6.9999566136        5.2568720325
  H        12.1931623669        6.4772319574        3.6710276671
  C        13.1581354502        5.2746855160        5.0933066760
  H         9.0894001071        7.0868293213        4.6944660084
  H         9.7614971368        6.7234022870        3.1597561308
  C         8.2316744904        5.4139543180        3.6502905832
  H        11.2347566552        4.3433960161        1.7992843143
  C        11.5123636842        1.4675045209        1.3304671234
  H        12.7273633772       -0.1590603993       14.9580320501
  H        14.1891529766        0.5570164829       15.5051691663
  C        12.5059079820        1.6565369103       16.0795102676
  C         6.7945701171        8.2657133485       16.7389372465
  H        12.8666628905        4.7241339735        5.9799224673
  H        13.4027115562        4.5181962541        4.4301893790
  C        14.4000958713        6.0204447514        5.3093611067
  H         7.9039529133        4.8445566338        4.5590490902
  H         8.5609517649        4.6758180446        2.8715347284
  C         7.0461002179        6.2307252788        3.0642125070
  C        11.5403197744        0.0449361807        1.2478857980
  C        11.8913268046        2.1757842755        0.0949792920
  H        11.4229541955        1.5249348927       15.9977281642
  H        12.6344085040        2.6877680494       15.6759414217
  C        12.8718115527        1.5598099756       17.6071285564
  H         6.9684243103        9.3231244861       16.6449484655
  C         6.5028823636        7.7949876865       17.9844367917
  H        14.3570072452        6.9119468453        5.9447199331
  H        14.8703217605        6.2604907739        4.4138288582
  C        15.2668677119        5.0993082132        6.1479577809
  H         6.7604782498        7.0603047371        3.7067224932
  H         7.2182674816        6.6429333793        2.0819271462
  C         5.7493019117        5.3603820025        3.0740800269
  N        11.3701612095       -0.8042911062        2.2968438170
  C        11.8781690645       -0.6176798448        0.0554181077
  C        12.1083724759        1.4946293167       -1.1481605404
  H        11.8741566284        3.2352504961        0.1784133881
  H        12.0625652317        1.1658126735       18.1392799541
  H        13.0330451753        2.5936994743       17.9524739004
  H        13.7896224820        0.9842463287       17.9717277050
  S         6.1886812823        6.1313368568       18.4056739206
  C         6.4464180581        8.7325203842       19.1281894535
  H        15.1416815218        5.3498649935        7.1215682156
  H        14.9450112315        4.0584668755        6.2489632959
  C        16.7208944785        5.0624437338        5.6962250299
  H         5.5897715281        5.0383699045        4.0519893593
  H         5.9074243987        4.5142030217        2.4054680965
  C         4.5129182359        6.1388648944        2.5892123604
  S        11.7018907085       -2.3414649836        1.8105978761
  N        11.9895264923       -1.9884667187        0.2660363433
  C        12.1178005792       -0.0075776798       -1.1985961327
  H        12.3493960158        2.0505790811       -2.0216603072
  C         6.1457898401        6.7120728648       20.1079608083
  N         6.1716277724        8.0669927005       20.2776352509
  O         6.5830357180        9.9421464925       19.0691194187
  H        16.8352633298        4.4465050772        4.8187960381
  H        16.9915693111        6.0925004510        5.5044580644
  C        17.5346377764        4.5163245286        6.8456952585
  H         4.6099991465        6.2975632145        1.4857432183
  H         3.6932580992        5.4052189005        2.5776026984
  C         4.0511988080        7.3898941176        3.2939311298
  C        12.5551834687       -0.7283113816       -2.3300930910
  S         5.7954317419        5.6505238814       21.4755705786
  C         6.1812729321        8.7866923295       21.6321923999
  H        16.9341197676        4.4506536439        7.7106740275
  H        17.8320970161        3.4350265271        6.6855616243
  C        18.5653944741        5.5219386549        7.2718323726
  H         4.4789184432        7.2449333964        4.2940397346
  H         2.9577160996        7.3607623508        3.3131111364
  C         4.5619486732        8.7299649231        2.6603793868
  H        12.4202792738       -1.7223917766       -2.3184708225
  C        13.0736395494       -0.2467266621       -3.5161073874
  H         5.6104489122        8.3361001431       22.4066273072
  H         5.7458111581        9.7547006771       21.4899189985
  C         7.6501143394        8.8886794175       22.0783986424
  H        19.0520902217        5.1176124488        8.1793234020
  H        18.1105064787        6.4417857637        7.6454252552
  C        19.6528116868        5.7963676654        6.2466562963
  H         4.1596062595        9.6527564481        3.1357226775
  H         5.6699423235        8.9123416627        2.6795365284
  C         4.2230052892        8.8141577199        1.2251972479
  S        13.8235042665        1.2258677114       -3.9095332594
  C        13.0623665539       -1.2380099093       -4.6239807836
  H         8.1162179345        7.9518044444       21.7782262288
  H         7.7724645659        9.0768334850       23.0946390291
  H         8.1563145162        9.7070803943       21.5397981958
  H        19.7442805974        4.9719409529        5.5040791593
  H        19.2549042416        6.6621644717        5.6434807042
  H        20.5575255247        5.9801576249        6.7471720540
  H         4.0052463148        9.8479276801        0.8798633506
  H         4.8209801453        8.2882703363        0.5082503896
  H         3.2098577312        8.2882670234        1.1149613322
  C        13.9496303024        0.5601303595       -5.5995566335
  N        13.6528927811       -0.7013944022       -5.7520996159
  O        12.7019335248       -2.4434256941       -4.6533706956
  S        14.8440529083        1.2138372935       -7.0327119451
  C        13.9587428618       -1.5313857220       -6.9148223081
  H        13.9426575162       -2.5518160550       -6.5831617697
  H        14.9686449734       -1.3724076898       -7.2596581334
  C        12.9025586848       -1.2387588389       -8.0266806052
  H        11.9300776001       -1.0522245386       -7.6021772071
  H        12.7871866798       -2.0636839712       -8.6625672832
  H        13.2847600553       -0.4496703128       -8.6104447662
