352
 i =   132300, time =    66150.000, E =        99.8503890977
  H        10.7687359062        4.5302381916       32.3587347350
  C        11.0078153899        5.5548040609       32.7125339305
  H        10.1661911507        6.0339929718       33.1596443411
  C        11.4314305797        6.2143878766       31.3460452378
  C        12.2145779285        5.2910469518       33.6495604152
  C        10.4299557822        5.8575989719       30.2497939656
  H        11.5769083096        7.2596506700       31.5158526492
  H        12.4320795057        5.7405230366       31.2034153829
  H        13.0041808057        4.6789141394       33.2560005228
  H        12.6730650701        6.2272552050       33.9013747127
  H        11.8418272658        4.8002059072       34.5654475559
  C        11.2042056656        5.3414861096       29.0668288435
  H         9.9097179341        6.7716125212       30.0595423094
  H         9.7977419862        5.0748369961       30.5343726130
  C        10.5540925650        5.8862543514       27.7500484411
  H        12.1995394335        5.7162272212       29.1216363588
  H        11.4048471084        4.2779902763       29.0230877649
  C         9.2228300591        5.1732260791       27.3014815536
  H        11.2761753620        5.7896376238       26.9100433278
  H        10.2415683199        6.9639895316       27.8306093521
  C         8.3101182517        5.9877486332       26.3927784398
  H         9.4144269306        4.1811672820       26.9470078667
  H         8.6382270350        5.0174424952       28.1942131642
  C         7.0845998837        5.3024756694       25.5759740617
  H         7.8497351686        6.7239445317       26.9867471367
  H         8.9462036037        6.4759691378       25.7306501672
  C         6.7486174005        3.9312371668       26.2284287313
  C         7.5425281772        4.6823710867       24.3001148255
  C         5.8913444196        6.2684710934       25.3467734803
  C         6.8179221599        2.9079951386       25.3196147255
  C         6.4182123994        3.5595342304       27.5024986643
  C         7.4787398581        3.2968708240       24.1683058436
  C         8.0573083153        5.3016613669       23.1110843011
  H         6.1566349602        6.8877216443       24.5295241550
  H         5.7265432929        7.0502116948       26.1016003750
  C         4.6189455406        5.6040614007       24.8417764771
  S         6.3724979165        1.4110775407       26.0952205925
  C         6.2234717721        2.2345386467       27.5592478011
  H         6.4007517897        4.3118745664       28.2827251510
  C         7.8673035355        2.7334856109       22.9791879654
  H         8.0461916346        6.3792760720       23.0970066308
  C         8.5322584012        4.6834140007       22.0089082001
  H         4.7079344043        5.3735014765       23.8190165036
  H         4.4759057310        4.5695875665       25.2048688862
  C         3.3315115724        6.4487997695       24.9938518348
  C         5.8458945962        1.4542710193       28.8082640117
  C         8.4657184563        3.3295919379       21.8969363166
  H         7.9572493350        1.6917265109       22.9871903390
  C         9.0771772973        5.0938129896       20.8096907586
  H         2.5399748750        5.9841784370       24.4238289204
  H         3.5257191614        7.4821776651       24.6265785571
  C         2.8320696564        6.6317403737       26.4708713429
  C         5.9185401729        0.0718847204       29.0044150357
  C         5.5658876730        2.3182026940       29.9637442421
  C         8.8805472815        2.6458858953       20.6663788947
  C         9.3251637173        4.0037005865       20.0642355664
  S         9.3477603420        6.6362315678       20.0952908788
  H         1.9824648983        7.2054478418       26.5038887509
  H         3.5432192506        7.1476842748       27.0593542958
  C         2.8006329749        5.2770839154       27.2075957413
  N         6.1650791731       -0.8907478351       28.0387466751
  C         5.6337791430       -0.4901084510       30.2208900944
  C         5.2945489178        1.7657191960       31.2091358901
  H         5.4020365717        3.3667778381       29.9308946976
  C         7.7793057691        1.9647331526       19.8467201056
  C        10.1475471109        1.7470941728       20.9935466684
  C         9.8761303144        4.3490824039       18.8406787262
  C         9.8827438684        5.7650472143       18.6907481243
  H         2.4595251907        4.4383440019       26.5218863473
  H         3.7949685622        4.9959384357       27.5172248161
  C         1.7801369763        5.2201413775       28.3596811995
  S         6.3276513935       -2.3694766696       28.6652451950
  N         5.8536928868       -1.9271255070       30.2176484167
  C         5.3735137973        0.2743373211       31.4218657205
  H         5.1953560846        2.4228226818       32.0263779445
  H         7.4605423002        1.1036678385       20.4256414205
  H         8.1913035061        1.6297053188       18.9108196193
  C         6.5839972600        2.7963376868       19.5607863417
  H        10.5048959257        1.3174930007       20.0812911823
  H         9.8563313521        0.9005255868       21.6583876080
  C        11.2304208481        2.5615140734       21.6066874600
  H        10.0015041869        3.6037074175       18.0571643214
  C        10.0372007847        6.4839603680       17.3650998490
  H         1.6200063244        4.1522483811       28.6520891873
  H         0.8734978664        5.7182150007       27.9545189216
  C         2.2010467290        5.9519379237       29.6563353000
  C         5.1675562807       -0.4607109810       32.6162153724
  H         6.9357473071        3.5931571900       18.9372687814
  H         6.3235011245        3.3246984797       20.4838473541
  C         5.4092506351        1.9863773171       18.9865524674
  H        10.9463607585        3.1513911686       22.4979227714
  H        11.6471512373        3.2214806527       20.9076548019
  C        12.4552589120        1.7428138557       22.0868495336
  C        10.1947676325        7.9186941565       17.2942653184
  C        10.1395076382        5.6708688695       16.1272011305
  H         2.6985662349        6.9210025971       29.2540423325
  H         1.3538403427        6.2536586790       30.2371671255
  C         3.2930811413        5.1492692618       30.3624780125
  H         5.1744509305       -1.4883493522       32.4330417200
  C         4.9191070976       -0.0519595598       33.9215443388
  H         4.7438201323        1.8103194770       19.8570607791
  H         5.6801051167        0.9646071456       18.6163320013
  C         4.6000903423        2.7487930446       17.9893029240
  H        12.1214851444        0.8042717154       22.6819966144
  H        13.0442453190        1.3949776921       21.2220315548
  C        13.1379527228        2.7971775841       23.0049690451
  N        10.0799330300        8.8878169790       18.3349809893
  C        10.3876188405        8.5163276063       16.0291131953
  C        10.5501404621        6.2798562495       14.9258191579
  H        10.1440995696        4.6293905753       16.1822586864
  H         3.3133526261        5.5753034888       31.3575379549
  H         2.9822179617        4.0678999844       30.3775561378
  H         4.1618053925        5.1766261221       29.6960293986
  S         4.6875121695        1.5149885886       34.4445145205
  C         4.8105532510       -1.1595205953       34.9299605764
  H         4.6195183349        3.8381905008       18.2150971835
  H         5.0502904375        2.6092654328       16.9915349364
  C         3.1388574214        2.2871816560       17.9015323853
  H        12.6814212386        2.8927134122       24.0568319674
  H        13.2580362729        3.8238908729       22.5729449242
  C        14.5306230825        2.2272695334       23.3590485767
  S        10.1148366750       10.3050723606       17.6071315878
  N        10.4849233806        9.9145868017       16.0639374935
  C        10.6951882659        7.7380201450       14.8833894882
  H        10.4624491606        5.6475546337       14.0097909752
  C         4.5097612388        0.7905634714       36.0701749321
  N         4.5562916202       -0.5695974059       36.1374676773
  O         4.9169282920       -2.3288230955       34.7595504378
  H         2.5724490761        2.9881230699       17.2205218966
  H         2.8509536196        2.4402714683       18.9244004497
  C         3.1263524175        0.8786620423       17.2451172447
  H        14.8720208576        2.7374102872       24.2596795884
  H        14.5083991638        1.0887372693       23.6084383561
  C        15.5409732127        2.5678993540       22.2355164124
  C        11.0175195090        8.4857559478       13.6857056180
  S         4.0645637597        1.6284788201       37.5618032955
  C         4.6911723088       -1.3794914075       37.3880186823
  H         2.2623748553        0.8340605770       16.5896383316
  H         4.0714962081        0.7750814370       16.6808787474
  C         3.0751182286       -0.2909844061       18.2858391434
  H        15.8676302802        3.5837293681       22.3634349437
  H        14.9193077425        2.4895390835       21.3227473345
  C        16.7674246223        1.6002798532       22.0138688406
  H        11.1163586839        9.5714931895       13.8342085989
  C        11.3853448422        8.1524090298       12.4168239730
  H         4.0771038346       -1.0075246175       38.2464556263
  H         4.4339761752       -2.4078360772       37.2802000407
  C         6.1257091642       -1.1796738528       37.8893243140
  H         2.1446893712       -0.1174849977       18.8210008294
  H         3.8505011315       -0.2142420333       18.9439652789
  C         2.9976642369       -1.6930382338       17.6596664330
  H        16.4697059398        0.5373395190       22.0390207825
  H        17.1696587450        1.8099352235       21.0066223572
  C        17.8730860285        1.7009479071       23.0361080953
  S        11.8293938207        6.5792455622       11.8447023047
  C        11.6590196736        9.2384979452       11.4544686149
  H         6.2873643338       -0.1910851362       38.2761296129
  H         6.4540099239       -1.8697551224       38.6630806477
  H         6.8281881240       -1.3368989167       37.1087370731
  H         2.1822090639       -2.2706490925       18.0615873073
  H         4.0068870404       -2.1788939543       17.7759258481
  H         2.7597039054       -1.6007589621       16.5653736638
  H        17.4378382709        1.7103584015       24.0533715543
  H        18.4256009006        2.5959868522       22.9047241501
  H        18.5439394466        0.8975757699       22.9195359467
  C        12.3769511336        7.3658625497       10.3906069177
  N        12.2078045746        8.7037821199       10.3205275307
  O        11.3612888578       10.4233990092       11.6432958915
  S        12.9538697328        6.4425901896        8.9459001308
  C        12.3959111742        9.5008546862        9.1103387163
  H        12.5401760646       10.4733233359        9.4906718353
  H        13.2077738053        9.0348658689        8.5143462250
  C        11.0942231079        9.5151044145        8.2839737892
  H        10.3402034932        9.6596322110        9.0228871443
  H        11.2097726477       10.3628413636        7.6213344265
  H        10.7643641884        8.7107507993        7.6297489181
  H         3.6481319547        0.9432102180       12.1008794956
  C         3.8734058207        1.9574672063       12.4584829383
  H         4.9093808406        2.0021337590       12.7295341337
  C         3.4652335091        3.0120589746       11.4593973804
  C         3.1469085271        2.2438652888       13.7721673383
  C         4.4436196271        3.2080857128       10.3132415178
  H         3.3627697143        4.0271209037       11.9516848619
  H         2.4696652003        2.7801965929       11.1169700993
  H         3.8587716059        2.7149198419       14.5200844600
  H         2.6621849609        1.3075732199       14.1854159309
  H         2.4231960515        2.9904850989       13.5920483126
  C         4.7250253141        1.7765987739        9.6648186251
  H         4.0453133392        3.7811144888        9.5041915614
  H         5.3374085535        3.6908513108       10.7218757835
  C         5.4610772237        1.9346584369        8.3295638344
  H         3.8650749373        1.1305616108        9.4139851389
  H         5.4130723955        1.2257255318       10.2915744452
  C         6.7751820947        2.6509394790        8.3727202598
  H         4.7389368733        2.2269438020        7.6065544266
  H         5.7031255196        0.9205674265        8.0285353897
  C         7.8815853045        1.9771859909        9.0655591103
  H         7.1235502134        2.9182451981        7.3571472573
  H         6.4591637560        3.5766328316        8.7960379099
  C         9.0766524546        2.8827456613        9.3391637675
  H         8.1493952661        1.1855323626        8.3848610500
  H         7.5285081244        1.6428830477       10.0629239823
  C         8.7752440820        4.2655966155        9.9673084615
  C         9.5011859197        3.5454375087        8.0388432205
  C        10.2899374095        2.1553059106        9.9861852792
  C         9.1473564908        5.2937423368        9.1488955279
  C         8.3543857970        4.6106745075       11.2509431402
  C         9.5980259641        4.8708968282        7.9481913573
  C         9.8286242064        2.9541922982        6.8293792610
  H         9.8420771878        1.7649700273       10.9239622197
  H        10.4449779131        1.3917215286        9.2335971792
  C        11.6600680113        2.9109619020       10.1094770009
  S         8.8218867182        6.8015176544        9.9264354935
  C         8.2077804085        5.9753797161       11.2846672110
  H         8.1380255334        3.8720365650       11.9724042957
  C        10.0735194051        5.4853364127        6.8699467027
  H         9.7772911149        1.8760744519        6.8032180387
  C        10.2173908288        3.5697120519        5.6989838792
  H        11.5587725944        3.9633407343       10.3529020420
  H        12.0469189070        2.9270141651        9.0510332396
  C        12.6586365560        2.3500626742       11.1650352316
  C         7.8191515751        6.7056028877       12.4673797361
  C        10.3674817965        4.8742832246        5.6720679512
  H        10.1063543468        6.5395119030        6.9355314857
  C        10.8117798199        3.1526085613        4.5011716442
  H        13.6527868782        2.7949835304       11.0259792224
  H        12.8682943369        1.2579034838       11.1128259538
  C        12.3062213253        2.9119940820       12.5864674286
  C         7.8694644575        8.0727517458       12.7683974610
  C         7.3939783141        5.8692387126       13.6213184807
  C        10.9164701995        5.6135241581        4.4483495609
  C        11.1849269527        4.2604636000        3.7213847754
  S        11.1914857037        1.6235309139        3.8626435343
  H        12.7314565881        3.7982093931       12.8748559394
  H        11.2184076119        3.1198945415       12.5828762964
  C        12.6054097535        1.9757259952       13.7181054005
  N         8.1140615857        9.0324178862       11.7820451914
  C         7.5360661553        8.6561602323       13.9801785759
  C         7.2232307266        6.4621896531       14.8037986830
  H         7.5926776603        4.8276326512       13.5974910786
  C        12.2241250795        6.3735441060        4.8192793718
  C         9.9194368435        6.5244219457        3.6950395674
  C        11.7459136273        3.8161716962        2.5230001037
  C        11.7055637739        2.4721306578        2.4597172746
  H        13.5707045380        1.6590651168       13.3964473781
  H        11.9087625177        1.1053312763       13.6842140468
  C        12.7180282084        2.6890650040       14.9988625230
  S         8.1504539484       10.5031471408       12.4427355303
  N         7.7354429931        9.9991701023       13.9781887396
  C         7.2125042258        7.9169854998       15.1364053195
  H         7.1293490754        5.8399136625       15.6411634796
  H        11.9736509872        7.1535603353        5.5127844907
  H        12.6485570976        6.8832777403        3.9335278929
  C        13.3293856931        5.5938557161        5.4330879303
  H         9.4890692648        7.3242597177        4.3900931318
  H        10.4714728373        7.0362198349        2.9232147853
  C         8.8436057744        5.6723468412        2.9769943291
  H        12.0226869234        4.4874062220        1.7370409238
  C        11.9877744697        1.6778645178        1.2093881264
  H        13.6599568782        3.2106034206       14.9333736210
  H        12.0108642436        3.4643927626       15.1939986484
  C        12.7075032092        1.7305772057       16.1523354822
  C         6.9989817747        8.5526167577       16.3371062636
  H        12.8370439150        5.2375492655        6.3419304853
  H        13.5033778242        4.6394130711        4.9467925883
  C        14.5733370899        6.3951325515        5.7992256222
  H         8.5816440507        4.7693662931        3.6254450316
  H         9.3014143552        5.1463503177        2.1036466498
  C         7.5756329025        6.4647539365        2.5820452489
  C        11.8441862663        0.2521620177        1.0328231430
  C        12.2532400615        2.4004496247       -0.0065331305
  H        13.4298107515        0.9631221857       15.9562718076
  H        11.7913408315        1.1718008791       16.1065802229
  C        12.9535703077        2.4005309558       17.5009931510
  H         6.9747699431        9.5891610076       16.2741565756
  C         6.6494399103        8.1818221841       17.6520095472
  H        14.2056157605        7.3215048766        6.2479111264
  H        15.0544840205        6.7810633291        4.8504851882
  C        15.5917946099        5.6199417177        6.6817956743
  H         7.2956205501        6.8088798810        3.5538156131
  H         7.9172957185        7.3055538072        1.9279786699
  C         6.5360915157        5.6702858705        1.8829678662
  N        11.4380653742       -0.6365144618        1.9792034785
  C        12.0379153091       -0.3612868674       -0.2148107465
  C        12.3238019220        1.7986005580       -1.2516710014
  H        12.2540659970        3.4665767347        0.0005491342
  H        12.0972704126        2.4868612924       18.1962538484
  H        13.2941478863        3.4588290242       17.3908434727
  H        13.6828358104        1.9024762063       18.0247561626
  S         6.2961944128        6.5942153205       18.2083485628
  C         6.6130022527        9.2758093106       18.6487952994
  H        15.1244154202        5.2816346135        7.6947766733
  H        15.9669548531        4.7856679141        6.1152641420
  C        16.8978259615        6.4552229614        6.9823448886
  H         5.9324700182        5.1145330439        2.6168149049
  H         7.0681507246        4.8632541557        1.3510356265
  C         5.6266104726        6.4068097776        0.9534492715
  S        11.6322961362       -2.1528401892        1.4803165862
  N        12.0539486928       -1.7475543162       -0.0453527470
  C        12.3313032602        0.3499649376       -1.4203233823
  H        12.3896707971        2.4780782611       -2.1530842033
  C         6.1492464853        7.3728488510       19.7864978739
  N         6.3715977527        8.7414204074       19.8121467113
  O         7.0640089371       10.4125813071       18.4102539986
  H        17.3095305791        7.0618223489        6.1237401566
  H        16.6419839272        7.1388624064        7.7545358927
  C        18.0379346143        5.4560460036        7.3656632817
  H         6.2410489283        6.9388926271        0.3203071459
  H         4.9196673807        5.7298287991        0.3925232930
  C         4.7399840515        7.4548195141        1.7294269549
  C        12.4770202726       -0.3685278078       -2.6291043696
  S         5.6595960561        6.6429404421       21.3153177512
  C         6.5684406849        9.5208229681       20.9975975247
  H        17.7605401859        4.9544740649        8.2388264463
  H        18.0845448339        4.6383865895        6.6928349934
  C        19.3544992065        6.0907591998        7.5216978117
  H         5.2082444037        7.8007802996        2.7170674158
  H         3.8377257884        6.9384358301        2.0110405902
  C         4.4520224306        8.5328309425        0.7130763927
  H        12.3283032557       -1.4849587608       -2.4114988048
  C        13.0965650280       -0.1448342697       -3.8352261404
  H         6.0242313728        9.0871251359       21.8388308458
  H         5.9999971865       10.4548418272       20.7316304707
  C         8.0544528790        9.6567564584       21.4812215084
  H        19.8524412971        5.7818379771        8.4574164618
  H        19.0974731942        7.1283199648        7.6439376782
  C        20.2301326077        6.0211867026        6.2418037726
  H         5.3579557327        9.1412634556        0.6026863267
  H         4.3786165981        8.1161314072       -0.2489461808
  C         3.4427772921        9.5402853709        1.1051703153
  S        13.5577054517        1.4078498957       -4.4191954571
  C        13.2682388800       -1.3020588126       -4.8143154384
  H         8.1343608244        9.1674128074       22.4174626781
  H         8.2465879781       10.7127180144       21.6906245400
  H         8.7930571094        9.2265602718       20.7753039286
  H        20.6138007709        5.0194487765        6.0052356021
  H        19.7617745196        6.4329236579        5.3788555609
  H        21.1336198752        6.7227822206        6.2968533823
  H         3.8460688267       10.5487889077        1.3894480105
  H         2.7315901440        9.6148960827        0.3149925804
  H         2.8317323320        9.2735832219        1.9630541553
  C        14.0297164376        0.5532978794       -5.9148255689
  N        13.7729672199       -0.7354730137       -5.9777382856
  O        12.9756898715       -2.4570091706       -4.5832123703
  S        14.8909270921        1.3475503304       -7.1780857681
  C        14.0502279381       -1.6025548880       -7.1571600807
  H        13.9234367307       -2.6682598654       -6.8343247513
  H        14.9799549549       -1.4768339902       -7.6353336675
  C        13.0169420813       -1.2361493649       -8.2502888360
  H        12.6770378000       -2.1160451735       -8.7623073473
  H        13.3569309111       -0.5639199184       -9.0378361048
  H        12.0894362308       -0.8352570714       -7.7963010788
