352
 i =   109700, time =    54850.000, E =        98.2381855273
  H        10.4066321042        4.9784317789       31.7643230636
  C        10.6278293734        6.0135842538       32.0846295824
  H         9.6748113079        6.5450536718       32.2716524195
  C        11.4175362118        6.7014455128       30.9879890277
  C        11.4864876468        5.9290497724       33.4040663147
  C        10.6575265081        6.7855947439       29.6595079851
  H        11.7392944973        7.7225327238       31.2762615672
  H        12.4026894331        6.1518191505       30.8244978617
  H        11.9948530577        6.9069732009       33.7039320978
  H        11.0373500663        5.4677877477       34.2471790165
  H        12.3002486368        5.2534807275       33.1438184221
  C        10.4868790682        5.4535473820       28.8936191435
  H        11.1092626754        7.5152354523       29.0301092636
  H         9.6594353505        7.2421677405       29.8467191847
  C        10.9657420618        5.5853244941       27.4507995883
  H        11.1972562612        4.6626805932       29.3060324391
  H         9.5411591852        5.0649628178       29.0046489019
  C         9.9376642012        5.0210718741       26.4654440452
  H        11.9413806021        5.0524357395       27.3786769642
  H        11.1869663112        6.6442738267       27.1059433960
  C         8.6977849500        5.8917368089       26.3210632582
  H        10.3473811344        4.8867122517       25.4215783813
  H         9.7476584097        4.0664256043       26.7714861994
  C         7.4740682504        5.1854571860       25.6556906849
  H         8.4258395662        6.2359754947       27.2578049944
  H         8.9868881139        6.7370152865       25.7916461237
  C         7.0507918782        3.8088284823       26.3595457354
  C         7.9027514692        4.4805428438       24.3727274377
  C         6.1836295427        6.0552603044       25.3725593817
  C         7.2214216786        2.7851078171       25.4579284663
  C         6.6265559799        3.3725919797       27.6288433466
  C         7.7255572501        3.1756063102       24.2569024514
  C         8.3703321814        5.1056707455       23.2778810377
  H         6.4784329200        6.8382871318       24.6403544997
  H         5.9501019028        6.5639851231       26.3011742418
  C         5.0156258659        5.2455212652       24.7468367920
  S         6.9285130394        1.3364384494       26.1961770734
  C         6.5072097550        2.0238453732       27.7194996995
  H         6.4402427983        4.0198190954       28.4614351209
  C         8.0525460009        2.6032102871       23.0650404227
  H         8.4865696505        6.1691690005       23.4226848049
  C         8.6240522586        4.5382294172       22.0601108432
  H         5.2662953802        4.9132545240       23.7739560310
  H         4.6485188159        4.3569522070       25.2586415192
  C         3.7103854732        6.0930804310       24.4521537903
  C         6.1081782547        1.3778852812       29.0187801131
  C         8.5017463300        3.2234061257       21.9340335508
  H         8.0812125586        1.5686947227       23.0958013614
  C         9.1008320047        4.9450299738       20.8431994863
  H         3.0827112612        5.6622743725       23.7492041012
  H         4.0353319726        7.0538946543       24.0222824596
  C         2.9480411515        6.5200149612       25.7247494790
  C         5.9929786888       -0.0270376944       29.2058976015
  C         5.5732859690        2.2147313439       30.1788378401
  C         8.9266094932        2.5440382170       20.6292231111
  C         9.1607867773        3.9060484295       19.9355962030
  S         9.5225044667        6.4894324244       20.1368105205
  H         2.1936340812        7.2816512566       25.3554519005
  H         3.7062503693        6.9666028907       26.4477209133
  C         2.2554464801        5.3486176998       26.3916243971
  N         6.3743733115       -0.9108305613       28.2003635781
  C         5.7111573233       -0.6404783784       30.4081989754
  C         5.0276758289        1.5736618513       31.3248805752
  H         5.3574918429        3.2773847409       30.0545813553
  C         7.8415209038        1.5930577932       20.0006906471
  C        10.2497328677        1.8226077473       20.6240432322
  C         9.5820768166        4.3586654039       18.6644667682
  C         9.7602453584        5.7362013326       18.6374143231
  H         1.8163214949        4.6753680104       25.6634838929
  H         2.8235791582        4.5703367775       26.8811134109
  C         1.2124722489        5.7160825745       27.4281199025
  S         6.3730285275       -2.4086563823       28.7526100564
  N         5.9334822023       -2.0175663330       30.3369517681
  C         5.2424374047        0.0997917900       31.5291105698
  H         4.4477639531        2.1547785326       32.0365825545
  H         7.4349998380        1.0659027584       20.9243328228
  H         8.3050651592        0.7945545970       19.5231088408
  C         6.6606708321        2.3207067614       19.3270392966
  H        10.2226568415        1.3619566963       19.6371301435
  H        10.1678690204        0.9639427681       21.2860429600
  C        11.5392044594        2.6233703077       20.9932405496
  H         9.7241740767        3.6743202302       17.8688441153
  C        10.1008083138        6.5372187627       17.3894140820
  H         0.5102924142        4.8688474126       27.6213117683
  H         0.5824388969        6.4130874981       26.9594641235
  C         1.8348652964        6.3287330950       28.6700581192
  C         5.0297533741       -0.5087979442       32.7690683907
  H         7.2013094479        2.5818465575       18.3876787874
  H         6.2658973173        3.1736499360       19.8248306574
  C         5.4298859860        1.4524747946       18.9496624315
  H        11.3588065350        3.1390872528       21.9309116883
  H        11.8262728829        3.4199884383       20.2839580435
  C        12.7659625634        1.7776384255       21.2086625781
  C        10.1325769488        7.9225530752       17.2392754071
  C        10.5039119549        5.7683268367       16.1245557504
  H         2.0593022776        7.3765989563       28.4380235616
  H         1.1058579642        6.1862817668       29.5326134318
  C         3.1523887371        5.7251258487       29.2407114277
  H         5.0028774270       -1.5818350442       32.6818978966
  C         4.8290446683       -0.0972545764       34.0683254348
  H         4.9762941315        1.1549697595       19.9252883422
  H         5.7487703177        0.6398155000       18.3339102040
  C         4.3076957252        2.1077194859       18.2044247786
  H        12.6910648149        1.0617614120       22.0825421605
  H        12.9786245028        1.1650376056       20.3266505239
  C        13.9869793702        2.6757089837       21.4643424858
  N         9.9849917269        8.9123872266       18.2378536895
  C        10.4520095638        8.5648336192       16.0626400967
  C        10.8391577767        6.3978966609       14.9510293951
  H        10.6761162208        4.6935171803       16.1903263261
  H         3.3094315204        6.0762026340       30.2806695466
  H         3.1869976427        4.6266337826       29.3102268347
  H         4.1040316348        5.9726365085       28.7896254123
  S         4.4336567448        1.4809076362       34.4886806482
  C         4.7797678441       -1.1078588722       35.1438272839
  H         4.1241047155        3.0122867186       18.7659961056
  H         4.5757639828        2.3576904747       17.1733413556
  C         3.0899540134        1.2499754433       18.2079815464
  H        13.8258344523        3.4361185557       22.2666270147
  H        14.1092428086        3.1466740199       20.5626358918
  C        15.2068208181        1.9073847750       21.5867777985
  S         9.8081788923       10.3503703225       17.5026956965
  N        10.1591198326        9.9016821763       16.0206509778
  C        10.7875934427        7.8978154757       14.8334762337
  H        11.0876598987        5.7746453904       14.1393545304
  C         4.3592027245        0.8490734289       36.1746648070
  N         4.4245967353       -0.5014602790       36.2689819378
  O         4.9027915230       -2.3097033544       34.9723212971
  H         2.2934899019        1.6403232635       17.5280034461
  H         2.5398878762        1.0524924870       19.0944665554
  C         3.3641435524       -0.0863366785       17.4184885431
  H        14.9112039238        0.9939638513       21.9743279046
  H        15.6036505954        1.6238062011       20.6405026693
  C        16.2662828658        2.6263391964       22.4444759194
  C        10.9599911091        8.6903395537       13.6186141432
  S         3.8020819359        1.7420336289       37.5775844851
  C         4.4832211800       -1.1532488068       37.5696802632
  H         4.1474299653        0.1226091046       16.6547939752
  H         3.8417595925       -0.7392983260       18.2033054582
  C         1.9983086924       -0.6614797394       16.9471585797
  H        15.8373982813        2.5153071056       23.4376027113
  H        16.3394777605        3.6813488481       22.1888760678
  C        17.6038785903        1.9780789678       22.4431120561
  H        10.9164418064        9.7356506712       13.7033556396
  C        11.2438139046        8.3306944056       12.3206180383
  H         3.8460895965       -0.7204213073       38.3103310123
  H         4.1050488155       -2.1833339976       37.4008021678
  C         5.9593980899       -1.1882851699       38.0940300911
  H         1.6972000749       -0.1981880851       16.0272836259
  H         1.1778815619       -0.4019021439       17.6203226084
  C         2.2143170555       -2.1363197319       16.8105582383
  H        17.5965840229        1.1159662815       21.7733431531
  H        18.2893380359        2.6714229860       22.0272417355
  C        17.9962552703        1.4902534379       23.8111959966
  S        11.6599757784        6.7591062043       11.6845196230
  C        11.2936360814        9.4308869476       11.3447673710
  H         6.0294030707       -2.0718985648       38.7347419244
  H         6.6557562129       -1.2908083484       37.2773608239
  H         6.2007283329       -0.2527193805       38.6857024923
  H         1.6842501627       -2.4455229232       17.6991153844
  H         3.2722696639       -2.3797443211       16.8190059839
  H         1.7801563733       -2.5621148928       15.9362440392
  H        19.0756673470        1.3913081267       23.8076075076
  H        17.4668483935        0.5653230295       24.0912279757
  H        17.7520439635        2.2415145668       24.5414881682
  C        12.1335839472        7.6634768117       10.2447597165
  N        11.9101205791        8.9708553375       10.2366121018
  O        10.8177668093       10.5491301667       11.5647798631
  S        12.6170501698        6.8444452265        8.7647150262
  C        11.9990049356        9.9023933228        9.1514103538
  H        12.4047887517       10.8330143016        9.5192690011
  H        12.7865936654        9.6468904792        8.3948065298
  C        10.7874803135       10.0538621712        8.2557519476
  H        10.0690065618       10.7234536271        8.7166083391
  H        11.1239478926       10.4567882848        7.3203396532
  H        10.3214932738        9.0418719104        8.0971160991
  H         2.3277373046        3.1905622094       12.5554864543
  C         3.0873491040        2.4515639287       12.7576894543
  H         2.5777877389        1.5371230999       12.4959991543
  C         4.2301996397        2.3174882952       11.7086849399
  C         3.4673123562        2.4353991813       14.2415910596
  C         3.7102254747        2.2653717250       10.1918005870
  H         4.8268965842        1.4752532776       12.0608588250
  H         4.8513337389        3.1815030482       11.8488302358
  H         3.1203671573        3.3051937991       14.7727725936
  H         4.5455318839        2.3752100080       14.2866480798
  H         3.0545175938        1.6000941126       14.7301159834
  C         4.5621204496        1.3089151454        9.3479431833
  H         2.7048575880        1.8416443369       10.2103005082
  H         3.6069359410        3.2263174555        9.7373233887
  C         5.2196509270        1.8384550125        8.1286595357
  H         3.8994925018        0.4710566842        9.0108535061
  H         5.3459880543        0.7830458166        9.8500546406
  C         6.4013981087        2.7802998776        8.4686897700
  H         4.3948751567        2.4108390982        7.5853917244
  H         5.4256049079        1.0432840672        7.3860441244
  C         7.6332568739        2.0514698136        8.9910427260
  H         6.8511670276        3.3486600543        7.5841788734
  H         6.0607849505        3.6247712558        9.0640159926
  C         8.9049588675        2.9791698359        9.2731354790
  H         7.8968975995        1.2488282402        8.2789357700
  H         7.3802115145        1.4634433556        9.9204785897
  C         8.5287808250        4.2990530702       10.0324091001
  C         9.2861830065        3.6760575327        8.0821351445
  C        10.1756705931        2.2848555352        9.8348864679
  C         8.7255357721        5.4077114986        9.2258680655
  C         8.0599437224        4.7050392958       11.2824742785
  C         9.3461187034        5.0212336293        8.0719168753
  C         9.7560382330        3.0994783136        6.9032200546
  H         9.9273095318        1.8654126482       10.7506457256
  H        10.4284379133        1.3809306932        9.2008518920
  C        11.4008310036        3.1836885116       10.1443945468
  S         8.2995813539        6.8841375286        9.9307839944
  C         7.8640466223        6.0269085834       11.3585998238
  H         8.2306129832        4.0067797215       12.0562222975
  C         9.7546548294        5.7151375949        6.9343149417
  H         9.7883433410        2.0639207811        6.9691438527
  C        10.1911037393        3.8013329674        5.7937462065
  H        11.2349580223        4.1817278382       10.5509956726
  H        11.9061598353        3.2670054384        9.1539814321
  C        12.4363591116        2.3761984647       11.0485921178
  C         7.5762096745        6.6946163712       12.6240337869
  C        10.2214122105        5.1206934306        5.7345289633
  H         9.7379488525        6.7961626035        6.8518399174
  C        10.7314108058        3.3953285406        4.5737730733
  H        13.3575707005        2.8260889345       10.8531898023
  H        12.6748096317        1.3472050378       10.6673501560
  C        11.9394996885        2.4434083047       12.4885252457
  C         7.6522443323        8.0560953500       12.9419874809
  C         7.3395324118        5.7877923357       13.7549262291
  C        10.6585405431        5.7676746164        4.4301357378
  C        10.9510100065        4.4716081497        3.7242107488
  S        10.9318314188        1.8019201687        3.9471112287
  H        11.3354135040        3.3766111831       12.6427696222
  H        11.2830373938        1.5491620608       12.7715665361
  C        13.0159798438        2.2732591231       13.5314456253
  N         7.7691860379        9.0863190424       11.9588479350
  C         7.4380972038        8.6169006189       14.1972269144
  C         7.1617773249        6.3363721212       15.0377238553
  H         7.2912297128        4.7421446715       13.7043428496
  C        11.9363660776        6.6514839729        4.6971422883
  C         9.4132311960        6.5194559648        3.8529594390
  C        11.4029619678        4.0274482056        2.4605042838
  C        11.4614957498        2.6163743389        2.4153240617
  H        13.6469944216        3.2251622049       13.4927689588
  H        13.6586282696        1.4507625286       13.2845745033
  C        12.4417090250        2.1026656299       14.8922588717
  S         7.8734372587       10.5408129377       12.7107205913
  N         7.5107098469       10.0211217830       14.2365076551
  C         7.1857943782        7.7889044957       15.3006366857
  H         6.9033885467        5.6805892843       15.8190672015
  H        11.8515790405        7.2476608827        5.6024961666
  H        12.1334616951        7.3486725993        3.8981166902
  C        13.2396824290        5.7905645235        5.0406299459
  H         9.0861332079        7.1717417495        4.6774397272
  H         9.7579384486        7.1491614768        3.0473785008
  C         8.2236466523        5.6842966281        3.4813623654
  H        11.7059541550        4.7278113730        1.7404319324
  C        11.8377685878        1.7961694839        1.2518820871
  H        11.8057141743        2.9383004954       15.0183604981
  H        11.6969404425        1.3568911072       15.0100783636
  C        13.4525822566        2.0815576810       16.0653381366
  C         6.9483076263        8.4211106956       16.5415055193
  H        13.0674850836        5.1282883499        5.8981349937
  H        13.3879773286        5.1084422615        4.1868508065
  C        14.4714876441        6.7704295074        5.1210988521
  H         7.9018059224        5.0011258312        4.2967034464
  H         8.6006284025        5.0787248919        2.6539294410
  C         7.1332037112        6.6208858592        2.9444753057
  C        11.7580022602        0.3708363744        1.0853432101
  C        12.2669634246        2.4964552529        0.0124913442
  H        14.3727034278        2.6368259510       15.7595157698
  H        13.8762995246        1.0702407163       16.2110439888
  C        13.0368216999        2.7578066917       17.3052307132
  H         6.9104673089        9.4532658906       16.5087553890
  C         6.6475334479        7.9001184381       17.7595893866
  H        14.1519054337        7.6241202135        5.7273207677
  H        14.6512221776        7.1012913356        4.0703037401
  C        15.6092342051        5.8389632373        5.7010416319
  H         6.7786632187        7.2220236496        3.7675212613
  H         7.6467768116        7.3342856467        2.2148881720
  C         5.9372846667        5.7982511604        2.3239962180
  N        11.4413840095       -0.5219831914        2.0940927590
  C        12.0560035548       -0.3070568137       -0.0588371136
  C        12.4075770890        1.8187729199       -1.2037242071
  H        12.3928613450        3.5546798209       -0.0090470266
  H        12.2660844433        3.4732252906       17.1482688365
  H        13.8621635947        3.0625839319       17.9427295154
  H        12.6753998264        1.9553632578       17.9488006997
  S         6.4136888605        6.2972647517       18.2610801947
  C         6.4011532738        8.8206467825       18.8534512923
  H        15.2616778945        4.9220520008        6.0635940680
  H        16.1160536966        5.4998964375        4.8727665076
  C        16.5538400502        6.4982386806        6.7735414433
  H         5.5841488412        5.0521521523        2.9956474578
  H         6.3013542122        5.2225059548        1.4427058721
  C         4.8064777833        6.7300033569        1.8026141398
  S        11.5389465754       -2.0804537212        1.6385696563
  N        11.9332253157       -1.6906624889        0.0912040628
  C        12.3887732429        0.2896742598       -1.2800446158
  H        12.4807511675        2.4184557332       -2.0737824362
  C         6.1020113896        6.9414843928       19.9742118570
  N         6.0949373844        8.2441539358       20.0170516966
  O         6.5989382522       10.0453400851       18.7419496821
  H        16.8283068573        7.5287505414        6.3971568661
  H        16.0970020525        6.6504077289        7.7848051406
  C        17.7759882541        5.6117230898        7.0510648651
  H         4.0349947416        5.9589150577        1.5066657081
  H         4.4549892709        7.3549854009        2.6070536657
  C         5.0286203016        7.5186843805        0.5516201868
  C        12.7416389237       -0.6353077760       -2.3712396211
  S         5.4481818938        6.1147468559       21.3455618233
  C         6.1287930929        9.0730501984       21.2752540464
  H        17.5538202262        5.0044992632        7.8674947913
  H        17.9574773644        4.8986313801        6.3026600759
  C        19.0010573495        6.3384044302        7.2616954464
  H         4.9502189848        6.7834813009       -0.2333802597
  H         6.0260748579        7.7963669275        0.5698309772
  C         4.1430718057        8.8637352027        0.3594987442
  H        12.3792960898       -1.5846530941       -2.2036299786
  C        13.2141856605       -0.3932038086       -3.6607231910
  H         5.6685003650        8.6467350979       22.2115162185
  H         5.5577417786       10.0562309039       21.0643290637
  C         7.6214677324        9.2860395630       21.5986763229
  H        19.5403574278        5.9571095658        8.1196843478
  H        18.7846032885        7.4021237739        7.5307692742
  C        19.9443323133        6.1746154487        6.0266542566
  H         4.2896302429        9.1196022632       -0.7339020799
  H         3.0863241060        8.6958853728        0.5624413660
  C         4.7731325723        9.9934945551        1.1231995367
  S        13.8242089845        1.1217817772       -4.1322506640
  C        13.2075661984       -1.4617189909       -4.6746207983
  H         8.2888916292        9.4701755139       20.7520482588
  H         8.0371308266        8.4773933219       22.2405727765
  H         7.7397093705       10.2561322195       22.1007893278
  H        19.3731166700        6.3949007747        5.1783119757
  H        20.7630083049        6.8633265277        6.1555313823
  H        20.3513589849        5.1650996154        5.9445013753
  H         5.8725802977       10.0452725532        0.9726787858
  H         4.3632132461       10.8791923678        0.7192775196
  H         4.4968660845        9.9467471600        2.1766641513
  C        13.9481093230        0.3307287762       -5.7841813226
  N        13.7841587110       -1.0011444621       -5.8170279876
  O        12.8480270996       -2.6179117789       -4.4351435362
  S        14.6236656402        1.2085886599       -7.2612371363
  C        13.9264688484       -1.6908630264       -7.0737961867
  H        14.0357411622       -2.7088855522       -6.8056947061
  H        14.9028159595       -1.4607513323       -7.6274918646
  C        12.8047202664       -1.5785251567       -8.0459789999
  H        12.5231145599       -2.5929491502       -8.3164183931
  H        13.1287212389       -0.9443450925       -8.8255423462
  H        11.9189585765       -1.0723163424       -7.6899762485
