352
 i =    42700, time =    21350.000, E =       100.5128417676
  H        10.1357207500        5.0979654833       31.5629404037
  C        10.7303233079        5.9870836915       31.9756691016
  H        10.1003677595        6.6896362951       32.5572492138
  C        11.3606591692        6.9153358205       30.8815710681
  C        11.6991470955        5.2995523137       32.9017010486
  C        11.8223879599        6.1500113969       29.5931144532
  H        10.5984318873        7.5601000175       30.5198102043
  H        12.0951098889        7.6212982080       31.2641960604
  H        12.0466652704        5.8392878536       33.7744128218
  H        11.2089808637        4.3868995200       33.2711688499
  H        12.6044616202        5.1577891797       32.3663518887
  C        10.5439897201        5.9290668134       28.7373040086
  H        12.1386090417        5.1570185461       29.8398148934
  H        12.6027893475        6.8540925365       29.2006189846
  C        10.8524896014        5.5070867657       27.2622618518
  H         9.9174427475        5.1035919256       29.1355347978
  H        10.0590979543        6.8327977064       28.6572689420
  C         9.7112690975        4.8090975617       26.4990886121
  H        11.7330032427        4.8592667472       27.2444959275
  H        11.1757518886        6.4113258796       26.6916400429
  C         8.5389647194        5.6921508527       26.0303172128
  H        10.1858029650        4.3951115348       25.6009505278
  H         9.3289727633        3.9999493311       27.0569279984
  C         7.4020309082        4.9663998155       25.2753493488
  H         8.1610374252        6.3014608747       26.8438288124
  H         8.8636174897        6.5393879034       25.3630529119
  C         7.0717415747        3.6550161517       25.9868688763
  C         7.7092721511        4.2129986771       24.0569634903
  C         6.2241186026        5.9089205746       25.1953730618
  C         7.1267268167        2.5139036572       25.2445213047
  C         6.6650651787        3.3716613705       27.3085814119
  C         7.5005706139        2.9075575193       23.9935364395
  C         8.0827130423        4.8698431784       22.8970950641
  H         6.5015729738        6.7386292559       24.6278624341
  H         6.0321888570        6.3447245904       26.1479448027
  C         4.9080840194        5.2965275462       24.5826338236
  S         6.7636544970        1.0371595383       26.0520456335
  C         6.4239541817        1.9990577768       27.4587921489
  H         6.7098412930        4.1141192403       28.1216826700
  C         7.7635846816        2.3219275718       22.8025550286
  H         8.0781288299        5.9292500108       22.9674165379
  C         8.3614412807        4.2279603223       21.7286019719
  H         5.1579667838        5.1026599422       23.5378630750
  H         4.7269024128        4.3713729270       25.0932764831
  C         3.6429170081        6.1702189071       24.4069085690
  C         5.9403118134        1.3754976747       28.7498876883
  C         8.3039269998        2.9202918192       21.5978537360
  H         7.6453373844        1.2526026988       22.6841063660
  C         8.7133620935        4.5573881823       20.4607963951
  H         2.8303895743        5.6214905246       23.8793547204
  H         3.8603473577        7.1254057597       23.8311564137
  C         3.0526658450        6.6001607349       25.7365373062
  C         5.7897071696        0.0344207070       29.0493037678
  C         5.6096356998        2.2336408139       29.8882300582
  C         8.6275193381        2.1602689290       20.3157611383
  C         8.8096048755        3.4763783070       19.5838197275
  S         9.0055594987        6.0627686554       19.7187831589
  H         2.3737451294        7.4852181532       25.7388335053
  H         3.8940522864        6.8222722315       26.4257341402
  C         2.1164390711        5.4678697776       26.1799071586
  N         6.0580887083       -0.9831524591       28.1129494896
  C         5.5915513866       -0.5339907856       30.2919087843
  C         5.2522955261        1.7582025626       31.1285795495
  H         5.5520282840        3.2929828295       29.7393482337
  C         7.4752022743        1.3732214674       19.7772353009
  C        10.0761590050        1.4024808960       20.4025777860
  C         9.0383180443        3.9469082163       18.2696423164
  C         9.3123902835        5.3014360247       18.2215550736
  H         1.4165587381        5.3465413185       25.3268675481
  H         2.7143619687        4.5486379807       26.2971333783
  C         1.2940058398        5.7078071149       27.4252368719
  S         6.2474328816       -2.4062518006       28.9098901186
  N         5.8930866260       -1.8694797428       30.3681245123
  C         5.3060236537        0.2782315578       31.3727601210
  H         5.0985557087        2.3617412511       32.0091054503
  H         7.2688577604        0.3807148939       20.2684506748
  H         7.5515319103        1.1558036254       18.6546857870
  C         6.1283260544        2.0672690891       19.8663478861
  H        10.5618614203        1.2733807492       19.4493461436
  H         9.9711913249        0.3935101407       20.8056524094
  C        11.0485885549        2.2955676305       21.1545140075
  H         8.9470628539        3.3073023217       17.4240276652
  C         9.6143883673        6.0394349260       16.9708476147
  H         0.4057529898        5.0047089676       27.5327500704
  H         0.8102614430        6.6687724400       27.3252302775
  C         2.1352785957        5.4932098748       28.7346883999
  C         5.1390581978       -0.3787770853       32.6601466058
  H         6.1598804712        3.1620698352       19.7837327379
  H         5.6769743517        1.8773835257       20.8274493395
  C         5.1612056788        1.6588038957       18.7153653767
  H        10.6342789638        2.5576773933       22.1174734819
  H        11.2735552541        3.2480385409       20.7561076835
  C        12.3867683984        1.5287435761       21.3185234494
  C         9.7452199624        7.4394152420       16.7875559192
  C         9.7479099276        5.2890719123       15.7342533454
  H         2.4391632351        4.4705452315       28.6739955846
  H         3.0708630575        5.9531056329       28.7029943208
  C         1.4361486859        5.7615646425       30.0194754754
  H         5.6094727568       -1.2601652240       32.6823547659
  C         4.8083619372        0.0658999819       33.9252710130
  H         5.2926117585        0.5607031303       18.5448659624
  H         5.4696262325        2.1176529473       17.8481251485
  C         3.6925194036        2.0335471837       19.0312610403
  H        12.2974808057        0.8439818299       22.1413150491
  H        12.6077873558        0.9942764739       20.3691700745
  C        13.4920209354        2.4782653207       21.6085020459
  N         9.7205287490        8.3393658110       17.8455725232
  C        10.0357823135        8.0757909351       15.5972150320
  C        10.1130802338        5.8921833710       14.5433200654
  H         9.6546439675        4.2170953302       15.7597951329
  H         2.1154914396        5.8257395783       30.7823084197
  H         0.9222960592        6.7631049376       29.9157973060
  H         0.7541808810        4.9592474534       30.1384694213
  S         4.1947420981        1.6965715844       34.3573400711
  C         5.0137818510       -0.8027290853       35.0435761567
  H         3.5548282078        2.6850739387       19.9864069596
  H         3.3443527331        2.6026874364       18.2171110879
  C         2.7868971712        0.7267981583       19.0695755874
  H        13.0840729659        3.2371260720       22.2124672611
  H        13.8076355993        2.9210214013       20.7402612704
  C        14.7313329543        1.7734113945       22.2406620327
  S         9.8869955938        9.8573396486       17.2821529429
  N        10.0470177380        9.4569637931       15.7576908048
  C        10.3554885184        7.3656511477       14.4293887870
  H        10.2128216502        5.3298811082       13.6510459696
  C         4.1704366409        1.0742741970       36.0138182098
  N         4.4127793067       -0.2785451787       36.1440326402
  O         5.1501871643       -2.0190064877       34.8913797233
  H         1.8229492883        1.1151386202       19.1943178029
  H         3.1429306280        0.1838104849       19.9668826547
  C         2.9707178854       -0.2316760179       17.8415684246
  H        14.3889456881        0.9426917783       22.8744437304
  H        15.3592053918        1.4197564080       21.4416876849
  C        15.6375937325        2.6730276246       23.1672039950
  C        10.5510379260        8.1963832229       13.2861349975
  S         3.6572712837        1.9190210472       37.4286579970
  C         4.5259761789       -0.9838609591       37.4277568692
  H         3.2475196153        0.3319197535       16.9865118303
  H         3.8897412350       -0.8450155980       18.0291364614
  C         1.6866379739       -1.0663493686       17.6454885136
  H        15.0686580822        3.0283307826       24.0424171628
  H        15.9215333754        3.6944677633       22.7946287512
  C        16.8542575836        1.9141599977       23.6090914777
  H        10.2291577941        9.2441504252       13.3046184272
  C        11.1230926331        7.8536663963       12.0609660774
  H         3.8929388650       -0.5810438417       38.1904094592
  H         4.2147881182       -2.0274021207       37.3042318459
  C         5.9512243478       -0.9424297866       37.9535981773
  H         0.8450628297       -0.5225453814       17.1525866045
  H         1.3360643566       -1.3823214930       18.6129239630
  C         2.0177380306       -2.3414018844       16.8794170065
  H        17.2989453413        2.5596046874       24.3852806354
  H        16.6504647574        1.0266205371       24.2005985697
  C        17.9328741957        1.5724797677       22.5634956708
  S        11.6359144730        6.3118836178       11.5557180815
  C        11.2693919391        8.9474810740       11.0428440614
  H         6.6586042491       -1.4687754520       37.3329889214
  H         6.1992567410        0.0869511598       38.1829494638
  H         5.9521451612       -1.4868912365       38.9046163639
  H         1.2091015441       -2.8770837726       16.4811969241
  H         2.6544801614       -2.9164132899       17.6320076701
  H         2.6572112548       -2.0152876978       16.0434030087
  H        18.8732139306        1.4153952022       23.0192369291
  H        18.1154609003        2.4272414985       21.9403023608
  H        17.6638833915        0.7066064335       21.8602008773
  C        12.0315434435        7.1036120405       10.0141191185
  N        11.8731950769        8.4375554233        9.9426465113
  O        10.9948062680       10.0506103724       11.2924253343
  S        12.7534613388        6.2328422728        8.6219903603
  C        11.9883922022        9.3906633261        8.8783675916
  H        12.3257086550       10.3915762545        9.2291202295
  H        12.7366342472        9.0912706106        8.0969606204
  C        10.6639037931        9.4539401994        8.1019138476
  H         9.7234902450        9.7676253593        8.6860928248
  H        10.7462645004       10.0815058303        7.2251278593
  H        10.5078138838        8.4862481040        7.7137776634
  H         4.3750541898        1.3586802752       12.3878818699
  C         3.9331315328        2.3300677429       12.4682438489
  H         4.6794891752        3.1356609849       12.4957657161
  C         3.0699312660        2.4220915203       11.2435101162
  C         2.9609121145        2.5237550759       13.7035226896
  C         3.9752633526        2.6964686196       10.0199929288
  H         2.3037830232        3.2291849381       11.3314513348
  H         2.6176614679        1.4370253605       11.1176939556
  H         2.3301464671        3.3797369156       13.3161881439
  H         3.4989607765        3.0216520186       14.4608155442
  H         2.4454485661        1.6256443208       13.9948668319
  C         4.6451496983        1.5025940580        9.4045551900
  H         3.3442229189        3.0673432862        9.2176268548
  H         4.6428928800        3.5271373326       10.1582803360
  C         5.4193920889        1.6021904638        8.0662669021
  H         3.9367886072        0.7970320420        9.2137089402
  H         5.1621016137        1.1120340225       10.2683815913
  C         6.6294144893        2.5397528188        8.2232822612
  H         4.7401871478        1.9631590230        7.3126816846
  H         5.8461713916        0.7131331657        7.6837857724
  C         7.7995478493        1.8951048852        8.8643570718
  H         6.8358492897        2.7269084676        7.2181443975
  H         6.3494140418        3.4344285588        8.7532154660
  C         9.0589303007        2.7768998787        8.9565884416
  H         8.0969025793        0.9411660311        8.3666087465
  H         7.4972128534        1.5204985227        9.8181336784
  C         8.6606294927        4.0665101152        9.6496868138
  C         9.5073429664        3.4361715882        7.8489406661
  C        10.1008054242        2.1087066681        9.8583097714
  C         8.8238704535        5.1878795484        8.9031925182
  C         8.1886623747        4.4832922405       10.8978728893
  C         9.4368627904        4.7787746014        7.7316456486
  C        10.0972983326        2.7675178843        6.7404658973
  H         9.5519497320        2.0279306442       10.8168943759
  H        10.1839160072        1.0750701470        9.5699015542
  C        11.4454720915        2.7416261142       10.0278942888
  S         8.3995401236        6.6990126131        9.5981758201
  C         7.8079640514        5.7941235602       10.9527241737
  H         8.0765487769        3.7137536161       11.7238939856
  C         9.9082227123        5.3814673178        6.5685239071
  H        10.1092889395        1.7159595682        6.7792613677
  C        10.4904946758        3.3428312610        5.5764233339
  H        11.4253442591        3.8385963817        9.9686407450
  H        11.8748941296        2.5299283392        9.0709780973
  C        12.4327644178        2.2559492213       11.0596482143
  C         7.4183337621        6.4299842731       12.2176522745
  C        10.4157131364        4.6942547029        5.4703242741
  H         9.8636315644        6.5330067604        6.4385733597
  C        10.8727928285        2.9700504341        4.2748886173
  H        13.3995629498        2.8102559342       10.9350855435
  H        12.7143764632        1.2237141737       11.0361623223
  C        11.8821098116        2.6698940511       12.3990600270
  C         7.3114711786        7.7862642123       12.4821397546
  C         6.8718003802        5.5105267361       13.3217267411
  C        10.8256061468        5.3795947273        4.2248919025
  C        11.0415089294        4.0771179512        3.4297251504
  S        11.0193274168        1.5304082522        3.4457027006
  H        11.8863754927        3.7797600137       12.5842567721
  H        10.7959132912        2.3614129223       12.4828416895
  C        12.7001712936        1.9493996507       13.4364220258
  N         7.7189976931        8.8306512268       11.6322244878
  C         6.9573193268        8.2832094894       13.7373334720
  C         6.4450601751        6.0151808243       14.5855169679
  H         6.7808747973        4.4571067155       13.1088926552
  C        12.1757603060        6.0718758803        4.3506026710
  C         9.7608478623        6.4061844677        3.6285746395
  C        11.3954646638        3.7019502135        2.0551435796
  C        11.3574931632        2.3247416408        1.9059426158
  H        13.7466050750        2.0371519435       13.3698781213
  H        12.4003175102        0.9070790118       13.3257714003
  C        12.2451518550        2.4278799344       14.8370131047
  S         7.5629846479       10.2821452343       12.4186646985
  N         7.1604506306        9.6548176597       13.8732853523
  C         6.5389774478        7.4678473706       14.8121389504
  H         6.1849401141        5.2571761667       15.3341443304
  H        12.1674104129        6.9524244428        4.9426554762
  H        12.4048109743        6.3602217945        3.3037756221
  C        13.3565817290        5.2787451018        5.0014154641
  H         9.3315956233        6.9902581839        4.4328937789
  H        10.3118144630        7.0865735984        2.8824320222
  C         8.5931428130        5.7688533132        2.9012581978
  H        11.6626237443        4.4548072623        1.3079196398
  C        11.5501254789        1.5585832024        0.6340866595
  H        12.7132821931        3.3802212905       15.1424243280
  H        11.1277553325        2.3982855547       14.9201550630
  C        12.6785727665        1.5339828200       15.9461497120
  C         6.2659398971        8.0826842598       16.1010083208
  H        13.0999286058        4.8181128399        5.9988896217
  H        13.5488967597        4.3859286531        4.4097700710
  C        14.6290138087        6.1730801507        4.9313759585
  H         8.1764733941        5.1453721446        3.6642673856
  H         8.8667974203        5.1311570081        2.0896489567
  C         7.5392711503        6.7805035589        2.5146186404
  C        11.6610059529        0.1339628013        0.5159607933
  C        11.7061717189        2.2720899171       -0.6351132231
  H        13.7593087724        1.3520371229       15.7659877481
  H        12.1220924149        0.6270084092       15.8919830627
  C        12.4417037005        2.2520156925       17.2363931326
  H         6.2459888021        9.2325955430       16.0204863795
  C         6.1124372609        7.6039309728       17.3810600700
  H        14.4025473771        6.9998096261        5.6628550253
  H        14.7936351439        6.5805472775        3.9150351608
  C        15.9269963941        5.4577003268        5.3187166670
  H         6.9293924571        7.0606321253        3.4089076559
  H         8.0228657216        7.7177559376        2.2626177255
  C         6.6754634557        6.5467299776        1.2838735991
  N        11.3007173149       -0.8217846843        1.4818398765
  C        11.9524245911       -0.4979160444       -0.6525844089
  C        12.0277305555        1.6714523235       -1.8187101309
  H        11.5079714013        3.3227025567       -0.6609110802
  H        11.4536219128        1.9837961233       17.5624801798
  H        12.4505750127        3.2780935739       17.3102785439
  H        13.1699254214        1.8586015603       17.9607157218
  S         5.9835208110        5.9822321087       17.8772676710
  C         6.1411923385        8.6466159717       18.4013000721
  H        15.9351333127        4.5533079158        4.7267180140
  H        16.8017864257        5.9870408260        4.9615407679
  C        16.1188221793        5.3356890656        6.8552495591
  H         5.9968843928        5.7500548701        1.6746152985
  H         7.2487079453        6.1217765081        0.4411051205
  C         5.9004341728        7.7277937467        0.7641350799
  S        11.2712258134       -2.3266872902        0.7966092735
  N        12.0500567784       -1.9136586388       -0.5703602723
  C        12.2330574192        0.1779483616       -1.8348009647
  H        11.9864588666        2.3400516948       -2.6244547393
  C         5.8551569468        6.6732669307       19.4858560434
  N         5.8153068882        8.0542698582       19.5877418203
  O         6.1794154832        9.8498785469       18.1047663865
  H        16.1757090902        6.3859936670        7.1957432498
  H        15.2045614633        4.9856493935        7.4166256596
  C        17.2857104190        4.5178501456        7.2739906162
  H         6.6385483328        8.4681719065        0.4246487670
  H         5.5515056524        7.4230916959       -0.2114948071
  C         4.8706268928        8.4335036464        1.6212101971
  C        12.5332887549       -0.6276475921       -3.0105203419
  S         5.4465652941        5.7308060451       20.9291820533
  C         5.9242445207        8.8529164458       20.8050102571
  H        17.0765677342        4.1722593906        8.3300322936
  H        17.3081878961        3.6244088547        6.6142051426
  C        18.6508312308        5.1362829599        7.3998209185
  H         5.2007368960        8.2971116549        2.6390366348
  H         3.8508819914        8.0998746184        1.6067495334
  C         4.6418802941        9.9727827316        1.4878094183
  H        12.1671888968       -1.6463370851       -2.9276997640
  C        13.0764310377       -0.1744626584       -4.1776161457
  H         5.3630852696        8.2252477746       21.5286016263
  H         5.4491931712        9.8247314172       20.7969118969
  C         7.3842756937        9.0028191577       21.1982696460
  H        19.2378918947        4.6902140730        8.2047830932
  H        18.5530922793        6.1372171779        7.7975230906
  C        19.3466910285        5.3489216476        6.0491774473
  H         3.9260191046       10.2216092747        2.2762754399
  H         5.4969156746       10.5026067518        1.6825175910
  C         4.1388391577       10.4567703111        0.1380295643
  S        13.5548670565        1.4413488233       -4.7212499182
  C        13.2197571100       -1.2484272729       -5.2083433267
  H         7.4464824760        9.2377403761       22.2551738593
  H         7.7419867415        9.9066872993       20.6710077394
  H         8.0635485001        8.1969961226       20.9808329332
  H        19.0537933053        4.5044371994        5.3695956629
  H        19.1064170176        6.2899456343        5.6591003787
  H        20.4347975533        5.3123445364        6.2499426706
  H         3.8402827916       11.4728850316        0.0057837729
  H         4.8111405620       10.2044587928       -0.6377788374
  H         3.2475834472        9.9405136257       -0.1416438565
  C        14.0113339641        0.6063123311       -6.1876889871
  N        13.9060857288       -0.7554462376       -6.2599745070
  O        12.9255468303       -2.4197736806       -4.9989871188
  S        14.7309448099        1.3632517032       -7.5707313923
  C        14.1556897485       -1.5801399571       -7.4396534212
  H        14.2546360421       -2.6492733551       -7.2106250292
  H        15.1714045036       -1.3572651144       -7.7158457370
  C        13.0868087781       -1.4536950340       -8.5607798883
  H        12.0793321148       -1.7223935812       -8.2174154546
  H        13.4002463342       -2.0362172322       -9.4604166513
  H        13.0861711412       -0.4574169054       -8.8843926257
