352
 i =   117100, time =    58550.000, E =        99.8372649835
  H         9.9647002309        6.2115552921       32.2660149558
  C        10.9834829689        5.8510212526       32.1971648032
  H        11.6701358420        6.6447718191       31.8984907309
  C        10.8911347164        4.8597871712       31.0477603177
  C        11.3107405167        5.3032745561       33.5949331805
  C        10.5873936837        5.5939885144       29.7121984020
  H        11.7594955838        4.2386939930       30.9296467311
  H        10.0824307067        4.0955765067       31.2869257931
  H        10.4573721804        5.4381002362       34.2951423504
  H        11.6413716609        4.3257349525       33.5773871551
  H        12.1325830057        6.0196938221       33.8542048870
  C        10.7047256988        4.6618279600       28.5167823122
  H        11.2609626593        6.4328212026       29.5680301513
  H         9.6324448544        6.1296889615       29.7752837563
  C        10.6653768975        5.3285309826       27.1277243648
  H        11.7514824610        4.4507379076       28.5803505716
  H        10.1678682200        3.6556728301       28.5361712936
  C         9.5331256252        4.7087825298       26.2696448742
  H        11.5065262129        4.9498195945       26.6003939539
  H        10.7431197675        6.4149052251       27.0312687930
  C         8.2002439993        5.4163712561       26.3968106642
  H         9.7109058766        4.6910031086       25.1732495497
  H         9.4573642855        3.6637136548       26.5708474362
  C         6.9630575319        4.7546945396       25.7522070646
  H         7.8812609825        5.4649974506       27.4261525040
  H         8.2584449409        6.4317381295       26.0191068389
  C         6.7361794092        3.3922231311       26.4189279050
  C         7.2883716577        4.0587897405       24.4380407561
  C         5.6433176563        5.6069722389       25.7469885503
  C         6.9229361349        2.2844794932       25.6175289494
  C         6.1884554045        2.9977721254       27.6654933843
  C         7.2999992284        2.7120667649       24.3882428228
  C         7.6367036038        4.7455852307       23.3305247746
  H         5.7756522007        6.6477219720       25.4771140988
  H         5.4238372551        5.7087608223       26.8496139249
  C         4.4116378858        5.0720634208       24.9361437230
  S         6.5495836560        0.7556772612       26.3500880639
  C         6.1128083232        1.6194185836       27.8230404017
  H         5.9816749729        3.6780797821       28.4691764119
  C         7.6738032134        2.0883888688       23.2295078294
  H         7.7030918199        5.8548524228       23.3638170173
  C         8.0922287190        4.1520395149       22.1615897373
  H         4.7312762001        4.8998337340       23.9225370305
  H         4.2806120762        4.0426871655       25.3428832582
  C         3.1439295947        5.8887813082       25.1282372140
  C         5.5767978567        0.9080123518       29.0485399317
  C         8.1337173234        2.8183983922       22.0882981018
  H         7.7541409624        0.9853296636       23.1427292847
  C         8.5426160541        4.6008186940       20.9417828650
  H         2.3281453828        5.3582320673       24.6711881619
  H         3.3250328251        6.8260510437       24.6058558532
  C         2.7604335185        6.0143221355       26.5970722863
  C         5.5770166572       -0.5006319939       29.2487229893
  C         5.1103916124        1.6745866931       30.2175780253
  C         8.6867589240        2.2092831199       20.9081247932
  C         8.9845133640        3.5123054034       20.2051312893
  S         8.7851423488        6.1018190659       20.2795187198
  H         1.8795288198        6.6166287038       26.5413107542
  H         3.5057564097        6.6584124532       27.2160621407
  C         2.4862582410        4.6470804527       27.1670615986
  N         5.8085985718       -1.4145050037       28.2195838470
  C         5.2515219048       -1.0914807308       30.4227521297
  C         4.8599870811        1.0799640492       31.4508218531
  H         5.1244381647        2.7502537649       30.1775037146
  C         7.6239142609        1.3702997292       20.1310452810
  C        10.0518046908        1.5252965790       21.0805860319
  C         9.4703260529        3.9397505811       19.0010727335
  C         9.4389754976        5.3110341837       18.8702497075
  H         1.9717131027        4.0437295105       26.4463777279
  H         3.4106739347        4.1765448979       27.3497780889
  C         1.4006728566        4.9530809434       28.2937061977
  S         5.5771861206       -2.9308629615       28.8138294434
  N         5.3780487373       -2.4656612422       30.3267857513
  C         4.9292802862       -0.3625457806       31.5985656763
  H         4.6102133135        1.7733399914       32.2197632641
  H         7.1867698027        0.6038703925       20.6889654407
  H         8.0616061361        0.9802166838       19.1259955385
  C         6.4374687641        2.2468270752       19.5479364832
  H        10.4451947275        1.2373878674       20.1334473446
  H         9.9849059940        0.6786402303       21.6635473826
  C        11.1366863234        2.4093724454       21.6947067534
  H         9.8622527399        3.2264724106       18.2541268008
  C         9.7891957073        6.0134033270       17.6224736594
  H         1.0822720209        3.9761951311       28.5314398211
  H         0.5205002304        5.3812331475       27.8552297458
  C         1.8207553830        5.6886706972       29.5731062125
  C         4.7613263228       -1.1941559776       32.7692444748
  H         6.8217212782        2.9075407252       18.7010793284
  H         6.0168312395        2.9215136138       20.2766660775
  C         5.2672793669        1.3945993967       18.9987644479
  H        10.7452348225        2.9235059537       22.6270746680
  H        11.4475725506        3.1979142007       21.0056771368
  C        12.3754368768        1.6193805282       22.0537162722
  C         9.6135676681        7.3661210616       17.4036715085
  C        10.0817554322        5.2536349375       16.3696741456
  H         1.9957109040        6.7617811207       29.4143375113
  H         1.0280948792        5.6822267601       30.3541775285
  C         3.0823681907        5.0252197408       30.1616303559
  H         5.1504808356       -2.2436108497       32.7791909023
  C         4.4543647378       -0.8552551147       34.0575809437
  H         4.8106305834        0.9045200281       19.8106736815
  H         5.6412583880        0.6891921090       18.2655795111
  C         4.2446609591        2.3311766557       18.3874158195
  H        12.0726701514        0.7295393200       22.6027519713
  H        12.9410421760        1.2972330230       21.1672927336
  C        13.3040892424        2.4785876334       22.8767153278
  N         9.3733897171        8.2998924980       18.4416717654
  C         9.8460852664        8.0145112506       16.2007428027
  C        10.3993070281        5.8975500473       15.1992792548
  H        10.3037507972        4.2405183475       16.4554732198
  H         3.5613869233        5.5786864566       30.9560727360
  H         2.9123997973        3.9591989422       30.2674181347
  H         3.9669952829        5.1471631029       29.4210066949
  S         4.1596347213        0.7483895059       34.6494718821
  C         4.4263190641       -1.9476396576       35.0919768880
  H         4.0117309674        3.0302744350       19.2048650266
  H         4.6147878800        2.9379923558       17.5342467479
  C         2.8357184203        1.8101584399       18.0083536290
  H        12.9678603233        2.5433419344       23.9122748028
  H        13.4359198756        3.4834663912       22.4439824715
  C        14.5942468951        1.7536372397       22.8803937361
  S         9.2836450519        9.8219360492       17.8025285560
  N         9.6708618258        9.3812513608       16.2917318165
  C        10.1977186677        7.3500890994       15.0309074827
  H        10.7581751702        5.3312316348       14.3467288427
  C         3.9870119465        0.0080536706       36.2098904314
  N         4.0626871529       -1.3753552080       36.2405462436
  O         4.5880829726       -3.1661939484       34.8768396771
  H         2.3546497882        2.5083759060       17.3412201265
  H         2.2866980859        1.7448922895       18.9017967493
  C         2.8585540943        0.3863026816       17.4277821112
  H        15.1015252230        2.0655210274       23.7715724027
  H        14.3478813474        0.6608458699       22.8620477305
  C        15.6239534736        2.1936120325       21.8756427181
  C        10.3445248455        8.1164122959       13.8382625325
  S         3.6264825760        0.9180771449       37.6960983598
  C         3.9808553864       -2.0705210256       37.4492923952
  H         2.8272772790        0.5052988871       16.3643411753
  H         3.7454448417       -0.0979202742       17.5996118122
  C         1.8235423314       -0.4872707324       18.1355754604
  H        15.6416300296        3.2509096827       22.0359744144
  H        15.3267066456        1.9079717912       20.8648380416
  C        17.0841172872        1.6995046744       21.9620806833
  H        10.2048920338        9.1805473535       14.0005855770
  C        10.9475191424        7.7516804794       12.6052733267
  H         3.1007802439       -1.6067474831       37.8956070913
  H         3.8002752633       -3.1539682246       37.3542104191
  C         5.2743451075       -1.9151113105       38.2188047435
  H         0.9514951723        0.1402309725       18.2098405889
  H         2.1095881024       -0.7298748692       19.1909916836
  C         1.6390240390       -1.6368717662       17.2171659040
  H        16.9960947449        0.5955607545       22.1971941112
  H        17.7398982981        1.8565195042       21.0567853418
  C        17.9363231725        2.1962925104       23.0577717887
  S        11.3785521682        6.1951778221       12.0121038550
  C        11.0648148102        8.8399663426       11.6163248079
  H         5.6770952069       -2.8687700302       38.4585077179
  H         6.0903966962       -1.4521442627       37.5699304524
  H         5.1518544689       -1.3243374400       39.0671150233
  H         0.9921063308       -2.3428825699       17.7282483809
  H         2.5865146966       -2.0782052056       17.1967684345
  H         1.3541045457       -1.2585984396       16.2548691653
  H        17.4013822648        2.7437802778       23.8370536924
  H        18.8060357889        2.8174167573       22.6834218813
  H        18.2313232328        1.2994486840       23.5627517982
  C        11.6106916431        7.0088086684       10.4376818006
  N        11.4589239619        8.3631926699       10.4643146202
  O        10.8871680899        9.9842004653       11.9267264654
  S        12.3087722765        6.3005609052        8.9671998153
  C        11.5646096629        9.2086514068        9.2568377985
  H        11.5356172196       10.2039920974        9.6404659186
  H        12.3411602571        9.1762191074        8.5564211655
  C        10.2340568881        9.3399116729        8.5082173353
  H         9.4052749592        9.5305012992        9.1997293026
  H        10.2829179140       10.2228127021        7.9320237392
  H         9.9400297432        8.4875138265        7.8721095040
  H         2.7142402660        3.2602939025       13.0798376500
  C         2.8617972023        2.2712169730       12.6504818712
  H         2.4398989067        1.4411596610       13.2131394962
  C         2.4243895703        2.1523376694       11.1785168396
  C         4.3494662307        1.9510904190       12.8517660815
  C         3.4259156547        2.7503529876       10.1474999061
  H         1.4801729622        2.4915966941       11.0687680297
  H         2.4946804305        1.0829092081       10.9411652257
  H         4.4100322152        0.8466133870       12.5801080623
  H         4.6060991663        2.0729654384       13.9068590615
  H         5.0002932009        2.4465934435       12.2197783392
  C         4.2870634691        1.7101828735        9.4256422771
  H         2.8340533237        3.1673846698        9.3359236244
  H         3.9821867408        3.5831473975       10.5177495057
  C         5.0797878379        2.2579586288        8.1693847719
  H         3.6370124589        0.9496411406        9.0964169649
  H         4.8664102718        1.1725619717       10.1641321731
  C         6.3267944054        3.0032411767        8.4722195343
  H         4.5132266189        2.9531319953        7.5615961410
  H         5.2716360315        1.3935474111        7.5146381161
  C         7.3785708641        2.0772896643        8.9539617159
  H         6.7162176042        3.5516400264        7.6049685057
  H         6.0875028113        3.6814398489        9.3123072584
  C         8.7339704747        2.7374517445        9.2813349596
  H         7.5456738342        1.2359166067        8.2797403402
  H         7.0101214241        1.6633440252        9.8423163166
  C         8.4743069270        4.0327484414       10.0112837234
  C         9.2593133434        3.4319350202        8.0558711657
  C         9.7937286882        1.9115851045       10.0581998301
  C         8.6916954091        5.1422042483        9.2147431343
  C         7.8979233660        4.3663316740       11.2461195591
  C         9.2200778964        4.7938997251        8.0036179008
  C         9.8255940425        2.8092182814        6.9696890179
  H         9.3653750037        1.5203504776       10.9759805475
  H        10.1284112969        1.0271570358        9.4640214080
  C        11.1128382400        2.6716081296       10.4144459748
  S         8.0866782088        6.6199377397        9.9274486154
  C         7.6730633286        5.7387992062       11.3654128356
  H         7.8589474945        3.7038967806       12.0450288170
  C         9.8071884394        5.4246092165        6.9614231960
  H         9.8906196765        1.7624068291        7.0892551727
  C        10.3203862292        3.4138410912        5.8824632875
  H        10.9792742057        3.7285990538       10.7293348059
  H        11.7256988944        2.7110791651        9.5582693122
  C        11.9945126957        1.9312015160       11.4101983161
  C         7.4498446746        6.3703824825       12.6915391967
  C        10.3012478751        4.7506301872        5.8118615646
  H         9.7429101159        6.5166960599        6.9708817627
  C        10.7195719533        3.0459975924        4.5994992123
  H        13.0539798419        2.1622835540       11.2231475603
  H        11.8105646587        0.8045977470       11.4908141446
  C        11.7311979201        2.4755305836       12.7409132915
  C         7.3883621085        7.7318277344       12.9377791573
  C         7.1099401263        5.4860403559       13.8527301207
  C        10.6506983849        5.4983236590        4.5039726364
  C        10.9504336082        4.1380267435        3.8100376697
  S        11.0805539947        1.5629230689        3.7646342770
  H        12.2928563218        3.2942334115       13.0821456963
  H        10.6459175195        2.7525810085       12.8880710168
  C        12.0218231491        1.3629205846       13.7691217600
  N         7.5894876032        8.8030458604       11.9807457735
  C         7.0632601703        8.2724086949       14.2030400963
  C         6.6578687061        6.0334125550       15.0709934273
  H         7.0778780336        4.4741756469       13.7856510356
  C        11.9079167672        6.3945801418        4.5080074414
  C         9.3484364979        6.2386612908        3.9605872141
  C        11.3583902280        3.7965747730        2.4925954929
  C        11.4287350953        2.4159175595        2.3139901206
  H        13.0298870506        1.1269357043       13.7833215631
  H        11.4760629362        0.3804381996       13.6484738942
  C        11.7587526300        1.9203272595       15.1445445215
  S         7.4592467597       10.2066418604       12.8160931799
  N         7.0353041082        9.6287584787       14.2215053587
  C         6.7285732002        7.4952930818       15.3295651173
  H         6.3652456666        5.3817381933       15.8903766765
  H        11.6722125921        7.2381304228        5.1415374291
  H        12.1604952931        6.7506609474        3.4791371344
  C        13.1357812061        5.7479094774        5.2464084667
  H         9.1144974297        6.9762041052        4.6984815839
  H         9.6720668326        6.6446279606        3.0144045997
  C         8.0841361390        5.3466073607        3.7476594535
  H        11.5357762462        4.5613048839        1.7427486541
  C        11.7985109934        1.6498227808        1.0351188343
  H        11.4603502628        2.9283263571       14.9410445869
  H        10.8306039630        1.4656385772       15.5028520581
  C        12.8547270859        1.8106641744       16.2636462718
  C         6.4512050325        8.2605620882       16.5051593491
  H        12.8420578236        5.1241383381        6.0826843910
  H        13.5499928249        5.1048596039        4.4915265766
  C        14.2202457180        6.6815311450        5.6918867652
  H         7.7801638847        4.7309316252        4.5940696587
  H         8.3457358681        4.5358916441        3.0479430595
  C         6.8592839556        6.2188867687        3.3126366705
  C        11.7952770597        0.2619908613        0.8859577786
  C        12.0515074004        2.4481226019       -0.2429118907
  H        13.8098059007        1.9959113063       15.7830224207
  H        12.9115865320        0.8386708524       16.7335553101
  C        12.8042530940        2.9107361447       17.2451026120
  H         6.4349489786        9.3089385205       16.3835110986
  C         6.1651325077        7.9001468854       17.7961162983
  H        13.7052998301        7.3481406100        6.3982497155
  H        14.7245201650        7.2721913339        4.8804566537
  C        15.2903007492        6.0078360760        6.5418048206
  H         5.9756083870        5.6062365019        3.4358034363
  H         6.6950822029        7.0761045736        3.9188391639
  C         6.8454746946        6.6521771730        1.8061574338
  N        11.6272247642       -0.6802023610        1.9045968150
  C        12.0047551034       -0.4058517893       -0.2920445841
  C        12.3590111129        1.7634552836       -1.4538850245
  H        11.9130668395        3.5429889409       -0.2662769299
  H        13.8534974030        3.0927548942       17.5223180347
  H        12.2464504198        2.6603124962       18.1384108146
  H        12.4472989136        3.8553398747       16.8976094308
  S         5.8562841868        6.3083661324       18.3426416102
  C         6.0578248778        8.9871605797       18.8077201753
  H        15.1621627511        6.4215395645        7.5224932326
  H        15.1583910321        4.9164709053        6.6750310460
  C        16.7043677322        6.2057967325        6.0518975685
  H         7.4694456895        6.0210132713        1.1635158251
  H         7.3705595660        7.5919224639        1.9310479693
  C         5.4411192482        6.9575673624        1.3371738903
  S        11.6558666816       -2.2072335950        1.4508454478
  N        12.0056504391       -1.7947070844       -0.1361905063
  C        12.3404210957        0.2987823219       -1.4873506727
  H        12.4589816496        2.2758078357       -2.3825944873
  C         5.4522449756        7.1233052497       19.9072475695
  N         5.6540116876        8.4559075262       19.9902794776
  O         6.2732818332       10.1574862141       18.5897698924
  H        16.8978290979        5.9022700153        5.0243765422
  H        16.9355395750        7.3209859198        5.9879132985
  C        17.6112168012        5.4027717571        7.0336853441
  H         5.3885967635        7.1335011313        0.2517949479
  H         4.8840454206        6.0474962306        1.6020479557
  C         4.8952817339        8.2671795501        1.9125741633
  C        12.6769653007       -0.4381329386       -2.6762378430
  S         5.2545025313        6.3040319551       21.4192501441
  C         5.6760758952        9.1592338431       21.2219596095
  H        17.1153693015        5.3553534831        7.9779026350
  H        17.7015818566        4.3858920374        6.7016405294
  C        18.9182229845        6.0758485017        7.3146215936
  H         5.7143709207        8.9834696038        1.7949401652
  H         4.7864730368        8.0911521556        2.9106931562
  C         3.6305889807        8.8661069518        1.3967290774
  H        12.6312606215       -1.5363199129       -2.5691128213
  C        13.2652436636       -0.0596922861       -3.9080589935
  H         5.0938266530        8.7230639683       22.0771458678
  H         5.1001394573       10.0711636636       21.0603162379
  C         7.0306306406        9.5058870857       21.8198964898
  H        19.4010176328        5.4239525736        8.0059470871
  H        18.8248483696        7.0989693552        7.6346330635
  C        19.7860463928        5.8965321691        6.0828652341
  H         3.8721121517        9.1490723828        0.3570341117
  H         2.8921369489        8.0927875043        1.4216081232
  C         3.3116157560       10.1197240267        2.2861520099
  S        13.8710387139        1.5087098012       -4.3938960055
  C        13.4225454823       -1.1487367375       -4.8745595964
  H         7.7260532321        9.7257890798       21.0565992816
  H         7.5121549931        8.6515781692       22.3291201482
  H         7.0749227330       10.4137329571       22.3708014743
  H        19.5713201023        6.4177344780        5.1500387438
  H        20.7978754597        6.1065464452        6.2944368162
  H        19.7259372374        4.8654545376        5.6836952049
  H         3.7765041246        9.9188762127        3.2776209186
  H         3.5707903388       11.0816755336        1.8456490424
  H         2.2891221318       10.1142480237        2.4060646304
  C        14.1354774113        0.6641914694       -5.9506658321
  N        14.0114543719       -0.6508168612       -5.9547213434
  O        13.0416081149       -2.2800736903       -4.6609081773
  S        14.8206919986        1.3580894666       -7.4344158174
  C        14.1806126338       -1.4735306254       -7.1293982335
  H        14.1069458698       -2.5244303350       -6.9303514650
  H        15.1521280575       -1.3371981718       -7.5997264575
  C        13.0593811894       -1.3616676537       -8.2053401458
  H        12.1122969069       -1.3018183873       -7.7478004831
  H        13.1056773583       -2.3021748395       -8.8527433128
  H        13.3904773515       -0.5102706990       -8.7995500553
