352
 i =   116400, time =    58200.000, E =       100.1113209415
  H         9.3523104660        4.6893215681       32.3037408379
  C        10.1562753697        5.3254526105       32.5982469941
  H         9.8750417289        6.3823187409       32.7767889619
  C        11.0751870152        5.3670206660       31.3635291709
  C        10.7282997993        4.8036668559       33.9594110417
  C        10.6966378522        5.9841343451       30.0075273911
  H        11.9367114329        5.9758672477       31.6829939007
  H        11.5551057300        4.4457783782       31.1949237313
  H        10.3618175050        5.1870344302       34.8737364810
  H        10.5236831124        3.6865349807       34.0067832445
  H        11.7999486904        4.9513866586       33.9166220351
  C         9.7923161271        5.1215272570       29.0946590387
  H        11.6298468137        6.1431731247       29.4306478719
  H        10.1482169593        6.9014033077       30.2240629458
  C        10.3714938903        5.2746977021       27.6969042665
  H         9.7984077616        4.0474850601       29.3629857475
  H         8.7658719773        5.4152089666       29.1536685631
  C         9.3577088738        4.7244921154       26.6899759645
  H        11.3862898431        4.8870007125       27.5398639453
  H        10.5408010192        6.2583884082       27.4447984685
  C         8.1004933167        5.6481272334       26.5291778239
  H         9.9835754342        4.7026681653       25.8339699214
  H         9.1337130798        3.6987846275       27.0387191289
  C         7.0037897589        5.1126425321       25.6600466876
  H         7.8241030142        6.0757933008       27.4939927555
  H         8.5737531920        6.4780333423       26.0224312166
  C         6.6372300108        3.8142330385       26.2485415363
  C         7.5054825497        4.4470295288       24.4179061365
  C         5.8403908934        6.0767766814       25.5331853408
  C         6.8694501098        2.7216761737       25.4077222805
  C         6.0744196607        3.4409676736       27.5171497010
  C         7.4208542133        3.1325992617       24.1990571316
  C         7.9732242392        5.1396541061       23.3253407147
  H         6.1514233258        6.9868601665       24.9692832416
  H         5.4295758570        6.5140637541       26.4484923875
  C         4.6283301380        5.4501766480       24.8305051168
  S         6.3652467722        1.2612353245       26.1396712684
  C         5.9865286679        2.0534020400       27.6264045639
  H         5.8318244448        4.1455761324       28.3256424703
  C         7.6775772145        2.5502028383       23.0246430079
  H         8.0524843878        6.1909216065       23.4523304541
  C         8.2286275906        4.5527065149       22.1504348725
  H         4.9336819832        5.1398146520       23.8003189703
  H         4.4047905558        4.5493778553       25.3105430332
  C         3.3838603320        6.3235425980       24.6027132290
  C         5.6772706963        1.3483864696       28.9421791039
  C         8.1004815963        3.2617610832       21.9032142682
  H         7.5777828324        1.5106307434       22.9025356368
  C         8.6941475827        4.9855156680       20.9043066793
  H         2.7715565985        5.8769005412       23.8395089973
  H         3.6067877595        7.3321770816       24.3913276161
  C         2.5035966011        6.3674832330       25.8107036916
  C         5.5495906922       -0.0447773788       29.0556072438
  C         5.2142286464        2.1556299135       30.1282892879
  C         8.5717404590        2.5868086808       20.7113142582
  C         8.8674456881        3.9395445719       20.0548141501
  S         9.0330340549        6.5793849782       20.2461795905
  H         1.7720107947        7.1877369063       25.5278266498
  H         3.1290543620        6.7692553814       26.5593587853
  C         1.8575269315        5.0677351057       26.3475833754
  N         5.7815591589       -0.9810921761       28.0977904195
  C         5.2107910962       -0.6691291911       30.2501373394
  C         4.9349959879        1.5285578385       31.2906453608
  H         5.2400075293        3.2279559688       29.9280920271
  C         7.6556686616        1.7091522505       19.9174182192
  C         9.8706506184        1.7590659720       20.8659620518
  C         9.3766399487        4.3757409283       18.8435314152
  C         9.4370732611        5.7859917971       18.7570267044
  H         1.2327311603        4.7358486981       25.5724189566
  H         2.5861396205        4.2903410533       26.4741806501
  C         0.9347981214        5.4100422588       27.5430782883
  S         5.6453648146       -2.4535446092       28.7171736573
  N         5.3467599027       -2.0099365959       30.2229651502
  C         4.9441685475        0.0793664307       31.4323830077
  H         4.6127032843        2.1026060547       32.1696967444
  H         7.3827007189        0.8343182016       20.5848003801
  H         8.2580183442        1.4080942753       19.1219906922
  C         6.4921694490        2.3929754268       19.3769602796
  H        10.2962539637        1.7361615399       19.8818762076
  H         9.6446916881        0.7656973852       21.1211289461
  C        10.9205143565        2.3072696288       21.8614928928
  H         9.6737756946        3.6836641310       18.1325046605
  C         9.6595347036        6.5140807725       17.4941460347
  H         0.2511532210        4.5974428898       27.7731086163
  H         0.2754206974        6.2317253230       27.2666541085
  C         1.5886771344        5.9198949669       28.7821290896
  C         4.7226423930       -0.6522236350       32.6614253566
  H         6.7484541744        2.9277979912       18.4737106190
  H         6.2828294958        3.2525935299       20.0723481616
  C         5.2529839786        1.5497823123       19.0290126780
  H        10.4206659917        2.3274012500       22.8637868071
  H        11.1029421649        3.3742869832       21.5560296830
  C        12.2396002789        1.5902614505       21.7549855341
  C         9.6264253254        7.9060401898       17.3194402414
  C         9.6045031247        5.7227422979       16.1816004138
  H         1.9778863630        6.9182916519       28.7312407226
  H         0.8758295762        5.9209319752       29.6108728770
  C         2.8463243973        5.0986268458       29.1429748352
  H         4.9469454206       -1.6823749585       32.5300958732
  C         4.4008656613       -0.3132630551       33.9301600621
  H         4.5397590069        1.6035772812       19.8445641585
  H         5.3973641354        0.5309725632       18.9151128642
  C         4.4896188028        1.9695673106       17.7901805402
  H        12.2614266016        0.5512871062       22.0816367042
  H        12.6896659980        1.5352542662       20.7887714607
  C        13.3671426508        2.3422736847       22.5138703923
  N         9.4668254196        8.7293886426       18.4225769116
  C         9.9820471529        8.5838088471       16.2095351080
  C         9.8778458093        6.4627442071       15.0249267797
  H         9.6256945312        4.6175671350       16.1493278866
  H         3.0639181047        5.2950542641       30.2159027997
  H         2.5201015193        4.0844459962       28.8582712842
  H         3.7019564240        5.5229262914       28.6651807938
  S         4.2328957208        1.2758060861       34.5660664736
  C         4.2844169637       -1.4513548164       34.9666172779
  H         4.5658086280        3.0377787778       17.8408073999
  H         4.9638394230        1.6063171572       16.8874646700
  C         3.0255889695        1.4827161942       17.7408244182
  H        13.0477868610        2.4411173931       23.5701577264
  H        13.5894440559        3.3474400798       22.1122848040
  C        14.6822520084        1.6329265093       22.4929083269
  S         9.5576530531       10.2494534430       17.9309639127
  N         9.9016381312        9.9580842693       16.3743833497
  C        10.1353716526        7.9093111670       14.9600200585
  H         9.9911145395        5.9874342765       14.0468868876
  C         3.8839377233        0.4511557266       36.0327423565
  N         3.9765150029       -0.9080594521       36.1593703915
  O         4.4611894525       -2.6340273427       34.7502544058
  H         2.5036672880        1.9223572232       16.8842648480
  H         2.4927422416        1.8262244588       18.6250824980
  C         2.8785277816       -0.0034630086       17.7609588050
  H        15.1034456773        1.7424577647       23.5145123749
  H        14.7295851126        0.5736925458       22.2891913156
  C        15.6398519888        2.3391891959       21.5315049217
  C        10.5696277756        8.5930215443       13.7845723911
  S         3.4036643696        1.3144094434       37.4830533923
  C         3.7620748242       -1.6811739881       37.3853448231
  H         2.1940251237       -0.2548758650       17.0282988629
  H         3.8024044045       -0.4798308188       17.4848502920
  C         2.2898558158       -0.4925818336       19.0608821611
  H        15.8771629902        3.3782080317       21.8686504645
  H        15.1905854425        2.3848541235       20.5712713688
  C        16.9861111241        1.7168926452       21.2839488542
  H        10.6156370367        9.6727594335       13.9093268637
  C        11.1320298921        8.2423862431       12.6067816211
  H         2.9622745706       -1.2745915511       38.0200837028
  H         3.5046404495       -2.6783829045       37.1382469435
  C         5.0412949795       -1.8614706805       38.1943881037
  H         1.2544789195       -0.1926419604       19.1459672232
  H         2.7637158033       -0.1139690689       19.9309011201
  C         2.2091098702       -2.0466931481       19.0556785018
  H        16.9373876665        0.6166231559       21.0228823714
  H        17.4379509541        2.3388234056       20.5211211266
  C        17.8377412845        1.8398565497       22.5834635639
  S        11.6879125023        6.6952777322       12.2618260363
  C        11.1621828646        9.2806926558       11.5175705430
  H         5.7354192530       -0.9629989065       38.2409805141
  H         4.6853435017       -1.9955743843       39.1507694990
  H         5.6234757941       -2.7608655967       37.9361991174
  H         1.3338677269       -2.2517903480       18.4636081218
  H         2.0966703661       -2.5174437115       20.0676004553
  H         3.1193976351       -2.3923371087       18.5090253358
  H        17.9276207214        0.9710676374       23.2141093188
  H        17.4344575174        2.5834730854       23.2003928268
  H        18.8637834766        2.1822844102       22.2620222330
  C        11.9842247849        7.3254035995       10.5966695738
  N        11.6552565789        8.6946009881       10.4334744657
  O        10.7013291445       10.4001256530       11.6101254128
  S        12.9467481897        6.6598949516        9.3221246657
  C        11.8703188178        9.5429080885        9.2200320872
  H        11.7078605579       10.5535226388        9.5696503210
  H        12.9082951852        9.3332769936        8.9885056173
  C        10.8524025002        9.1118961684        8.1650920759
  H         9.8536494609        8.9009542789        8.5358908594
  H        10.6937147045        9.9264101663        7.4094289902
  H        11.1403537742        8.1635299275        7.7432019832
  H         2.1089505472        2.9941356378       12.5460140154
  C         2.5043572927        2.0088179700       12.2532118074
  H         1.7336737285        1.3418737966       12.5960390036
  C         2.4800181712        1.8231622663       10.8168132183
  C         3.8129336933        1.8788991979       12.9517779205
  C         3.5726734138        2.4063631843        9.9364124873
  H         1.5099130772        2.1295173399       10.4650620698
  H         2.5175149877        0.7890587896       10.7357197176
  H         4.5058657151        1.2748544670       12.4584215818
  H         3.7286358127        1.3970539312       13.9834642340
  H         4.2839385753        2.9297561456       12.9407282304
  C         4.6128123829        1.3651803238        9.4300321949
  H         3.0549215753        2.8892288599        9.1155557093
  H         3.9912224612        3.2766475759       10.4786610415
  C         5.3450121753        1.9246908080        8.1673664505
  H         3.9778893383        0.5385735121        9.1249482504
  H         5.2040724336        0.9057524607       10.1683276462
  C         6.5494127445        2.7151484903        8.5985247242
  H         4.5726855925        2.3803218994        7.5271772956
  H         5.6561004368        1.0358716520        7.6408607753
  C         7.8119036379        1.8415911350        9.1257226096
  H         6.7979791593        3.2819184598        7.7393956372
  H         6.2509500604        3.5026731404        9.2951512939
  C         9.0739240722        2.8400936319        9.2488718264
  H         7.9487347373        0.9485241161        8.5703076359
  H         7.5846057605        1.5490803661       10.1703969014
  C         8.6134184425        4.1992208665        9.8819861179
  C         9.4239339089        3.5304004717        7.9940640062
  C        10.1392151172        2.2610463519       10.2205319379
  C         8.6366009883        5.2519216812        9.0238334038
  C         8.0663068293        4.6484223762       11.0932285809
  C         9.1485481535        4.8141517002        7.8141152765
  C         9.9526723049        2.8510539185        6.8681083220
  H         9.6334744809        1.8731719929       11.1218164515
  H        10.4789022787        1.4506067499        9.6189833194
  C        11.3506009719        3.1406182529       10.4464120335
  S         8.1227239849        6.7878306087        9.6906104292
  C         7.7530197294        5.9737028337       11.1386923190
  H         7.7170787975        3.8601074140       11.7944655497
  C         9.4869134022        5.4217459299        6.6249587912
  H        10.0707894457        1.7885048089        6.8768033899
  C        10.1941727403        3.4741520755        5.6911433299
  H        11.1224288672        4.1801060991       10.5556361604
  H        11.8751913200        3.0972706165        9.4863421374
  C        12.2872603270        2.6521215369       11.5410768643
  C         7.1887294597        6.5881325470       12.3614387825
  C        10.0070137234        4.8218334116        5.5211890803
  H         9.3389070234        6.4871458438        6.5626429554
  C        10.5994444818        3.0875748340        4.4397862072
  H        13.2767262260        3.1376151343       11.4043568673
  H        12.3739031789        1.5759115341       11.4401924826
  C        11.7660472017        2.9807972505       12.9623190240
  C         7.3357021083        7.9706198871       12.6946953468
  C         6.8589185103        5.7253416505       13.5207836585
  C        10.3677225639        5.4471127500        4.2533863364
  C        10.6981803175        4.1513934242        3.5996522050
  S        10.9498213127        1.5903992588        3.7462620101
  H        12.3246383611        3.8408432433       13.3945294602
  H        10.7898384278        3.3771919252       12.9095561601
  C        11.8806835746        1.7926376937       13.9108997618
  N         7.8152592260        8.9943372831       11.8219132481
  C         7.2045254820        8.4736849907       13.9999106636
  C         6.5828660959        6.2565722488       14.7663455577
  H         6.6033181792        4.6179825201       13.4324928960
  C        11.6741466100        6.2733021710        4.1918558110
  C         9.1735151058        6.2117530890        3.6745039854
  C        11.1336571424        3.7548243301        2.3491263170
  C        11.3726862530        2.4125582226        2.3128206050
  H        12.9404233790        1.5034709177       13.8570052321
  H        11.3238376700        0.9328285297       13.6659276034
  C        11.5729204101        2.2629427745       15.3268063155
  S         7.7607354056       10.4169349929       12.5509129700
  N         7.3672865317        9.8499496636       14.0425438401
  C         6.7912896394        7.7048484324       15.1031671786
  H         6.2778490688        5.5612050081       15.5259455816
  H        11.6002479697        7.3596393240        4.3393476665
  H        12.1117522501        6.2662245680        3.1481402125
  C        12.6730359170        5.7629264639        5.2645313921
  H         9.1256986523        7.1346997540        4.2590014444
  H         9.4218888848        6.5173063778        2.6552790733
  C         7.9187231841        5.3206616997        3.6221887169
  H        11.3994623670        4.4893156577        1.5828127930
  C        11.8478400849        1.6722879891        1.0960455505
  H        10.9303776004        3.2142219321       15.3651521069
  H        11.0418154796        1.4598693016       15.8822877205
  C        12.8155407595        2.3652568863       16.2151576262
  C         6.5105023628        8.4000339396       16.3164525456
  H        12.2930762693        5.8271873747        6.2504625870
  H        12.8129642585        4.6932486516        5.1685833293
  C        14.0542772594        6.3928178566        5.1202558637
  H         7.6706189708        4.7941547660        4.5635072462
  H         7.9925803801        4.5943642984        2.8599606560
  C         6.7314270508        6.1334825086        3.1946700392
  C        11.8422387258        0.2798615809        0.8792047365
  C        12.0754156068        2.4626409187       -0.1449941897
  H        13.4319235846        3.1797650887       15.8546310640
  H        13.4389335226        1.4729255107       16.1377621711
  C        12.4849104312        2.7500021929       17.5821013394
  H         6.5452954479        9.4339698573       16.3929832374
  C         6.2084857991        7.9277814392       17.5728393201
  H        14.1580841276        7.4891613071        5.1158564749
  H        14.3933020827        5.9980323898        4.1585653542
  C        14.9685542870        5.7929733982        6.1910597093
  H         5.7897070202        5.6275008640        3.3001035480
  H         6.7860545545        7.1138448459        3.7686942469
  C         6.8137482252        6.4368857614        1.7478521553
  N        11.5825491239       -0.6325460728        1.9071819312
  C        12.2105694567       -0.3824332628       -0.2716234007
  C        12.4350166036        1.8409946876       -1.3404534052
  H        12.0656371337        3.5124792691       -0.1261417980
  H        13.4480634121        2.8045533341       18.1315516619
  H        11.8651207379        1.9386687292       18.0510014034
  H        12.0028386199        3.7577293615       17.6919525197
  S         5.9318631991        6.2832560599       18.0135092239
  C         5.9553255411        8.9333944092       18.6147965231
  H        15.0063737179        6.4571116226        7.0610577535
  H        14.5564937527        4.8771252269        6.5212106608
  C        16.3021611187        5.4634444008        5.6923257461
  H         7.1397137851        5.5838198915        1.2002228287
  H         7.5786040949        7.1974403433        1.6968655415
  C         5.5704692509        7.0287089374        1.1471397894
  S        11.6106242910       -2.1101880627        1.2657373927
  N        12.0750903278       -1.7314018292       -0.1992419772
  C        12.5138685513        0.3795171481       -1.4612246964
  H        12.6455090594        2.4384771400       -2.2390658067
  C         5.7680463887        6.9138558281       19.6568814551
  N         5.6602650589        8.2738305740       19.7284253427
  O         6.0924032544       10.1444819150       18.4563549438
  H        16.2155963442        4.7788715795        4.8283992692
  H        16.8901562068        6.3112789895        5.4092965290
  C        17.1573751143        4.7546829709        6.7525456674
  H         5.6970827353        7.2861084228        0.1045193797
  H         4.8583988450        6.2358683578        1.1266665575
  C         4.8614374828        8.1127509243        2.0103082529
  C        12.7869392115       -0.3735858118       -2.6006081115
  S         5.1251425451        5.9906334900       21.0203628459
  C         5.5394657602        8.9950087269       20.9936753172
  H        16.5617813856        4.1512129560        7.4533274931
  H        17.7543171062        4.0450132872        6.2141243298
  C        18.0334846516        5.7501690812        7.5223715347
  H         5.4965629386        8.6239828562        2.6278675088
  H         4.0822768735        7.6423852152        2.6535383016
  C         4.0128014458        9.1034401452        1.0830804136
  H        12.4607704703       -1.4289306138       -2.5995160859
  C        13.2077457571       -0.0580010675       -3.8626045968
  H         4.9722095047        8.4874569516       21.7593577533
  H         4.9494671225        9.9313746643       20.7602773188
  C         6.9040346245        9.2433152309       21.6515084065
  H        18.1257336666        5.3933744983        8.5427910672
  H        17.5204406274        6.6881892744        7.4941768816
  C        19.3489926611        6.0806335627        7.0391693153
  H         4.6907708160        9.6089443540        0.4453656124
  H         3.3242707031        8.5024164340        0.4494981536
  C         3.2202952301       10.0775575913        1.9919741938
  S        13.7387290445        1.4075994547       -4.4850684268
  C        13.3157160483       -1.1877057923       -4.8475281768
  H         7.7574076245        9.5173688898       20.9705232367
  H         7.2481264056        8.3751147248       22.1373791042
  H         6.9128177417       10.0758877790       22.4253319340
  H        19.1658403329        6.4563391932        5.9907217740
  H        19.7613600556        6.9446135534        7.5927073961
  H        19.9660483203        5.2103485621        6.9457047186
  H         2.3508696810        9.5559908753        2.3250715873
  H         3.8055493814       10.4393004621        2.8216201700
  H         2.9385581545       10.9312132698        1.3018097633
  C        14.0876900425        0.5841511454       -6.0239824726
  N        13.8019519088       -0.7158879690       -6.0102936542
  O        12.9591363851       -2.3570416752       -4.6499179988
  S        15.0056634494        1.3397461769       -7.2064259463
  C        14.1410617059       -1.5761068091       -7.1671892794
  H        13.7052252398       -2.5575823875       -6.9347605137
  H        15.1791468670       -1.7205029581       -7.4700592686
  C        13.4047879027       -1.1662509440       -8.4215419438
  H        13.2717154578       -2.0648028603       -9.0766979190
  H        13.8961760187       -0.3993585127       -8.8844291621
  H        12.4043817463       -0.8423732983       -8.0573052954
