352
 i =     9600, time =     4800.000, E =       144.4166430683
  H        10.2143542829        4.4536947323       32.4272625453
  C        10.2244000022        5.4840677542       32.3504254756
  H         9.1763387287        5.7701357236       32.3926205472
  C        10.9086176025        5.9077554436       31.1081286481
  C        10.8814808302        6.0724005661       33.6231316113
  C        10.4017687683        5.3877438503       29.7850879225
  H        11.1185749766        6.9582769440       31.0821489152
  H        11.8868915102        5.6653483260       31.3545170954
  H        10.2387650909        6.8455724397       33.9528892020
  H        10.7063908841        5.3925615992       34.4775232234
  H        11.8173938830        6.5889406266       33.5502256034
  C        10.8302513567        6.2623012541       28.5781834684
  H         9.3425857517        5.5636505424       29.6110740700
  H        10.6365177028        4.3480972870       29.5838299247
  C        11.0469013223        5.7741865107       27.1706685933
  H        10.1920356691        7.1118553508       28.5912160983
  H        11.7999044809        6.6149736649       28.7311300597
  C         9.9266422765        4.9363631072       26.6258736530
  H        12.0446415216        5.2990708701       27.0594695843
  H        11.3057267585        6.5315492579       26.4206318367
  C         8.5972288100        5.8158331419       26.4703215956
  H        10.2772056388        4.5330265019       25.6717556884
  H         9.7264040947        4.1899950257       27.3563096592
  C         7.4078829790        5.1447549193       25.7260590792
  H         8.2855792738        6.2362088222       27.4281066749
  H         8.8155123965        6.7073534537       25.9052603723
  C         7.0743271903        3.7986934031       26.2551521256
  C         7.8142856966        4.4936027823       24.3061904775
  C         6.1619075464        6.0578217405       25.7070798262
  C         7.1702305487        2.7243297828       25.3978996897
  C         6.8088763090        3.3622582886       27.5518967066
  C         7.7287205756        3.1452729542       24.2124207936
  C         8.1232991420        5.1670165683       23.1642255888
  H         6.5826939196        6.9308681652       25.1955257460
  H         5.8575919435        6.3722821418       26.6954865798
  C         4.9805621547        5.3559803725       25.0654035066
  S         6.7213337257        1.2146389234       26.1136906248
  C         6.5102677243        2.0371136176       27.5488439173
  H         6.8693917801        4.0612951938       28.3766166628
  C         7.9633511211        2.5746457106       22.9818053913
  H         8.0998005851        6.2044409899       23.3573356209
  C         8.4213817210        4.6315951293       21.9546988168
  H         5.3633463477        4.9236481639       24.1312869052
  H         4.6540270552        4.5491952248       25.7198612469
  C         3.7400359319        6.1838347482       24.6551320273
  C         5.9828183313        1.3166072494       28.7842643531
  C         8.2610066062        3.2555601787       21.7932842997
  H         8.1683515321        1.5080167352       22.9567267801
  C         8.7249390172        5.0366097685       20.6374067377
  H         2.9446411851        5.6870204817       24.0112373680
  H         4.1348616034        6.9994874361       24.1239201339
  C         3.0775935801        6.7245997613       25.9843424499
  C         6.0546703519       -0.0461589507       29.0926891342
  C         5.2753741368        2.0663691209       29.8001964952
  C         8.6839838140        2.5475967098       20.4567092682
  C         8.8809256559        3.9045216600       19.7755403266
  S         8.9617204964        6.4972426597       19.9131835344
  H         2.4183923450        7.5489996780       25.8596352285
  H         3.7375390157        7.1334548943       26.5998222990
  C         2.4540114447        5.6484471932       26.7864697135
  N         6.5533796824       -0.9827507254       28.2886148690
  C         5.5286643843       -0.6548260403       30.2750447694
  C         4.9834525948        1.5346238135       31.0734730194
  H         4.9911979784        3.1393639484       29.6188726602
  C         7.4957369394        1.8977830098       19.7958358623
  C         9.9840051890        1.7518965014       20.5736858649
  C         9.1535018626        4.3574001350       18.4542615546
  C         9.3147173456        5.7201483699       18.3962161135
  H         2.2666376630        4.7871265214       26.0369943446
  H         3.1541907979        5.2444217869       27.5005692075
  C         1.3090689112        6.2998276442       27.6452161176
  S         6.3001951092       -2.4540957707       28.8013664363
  N         5.6579387746       -2.0457854354       30.2275210262
  C         5.0493885258        0.0767538536       31.3027796860
  H         4.5679231599        2.1925223033       31.8373708749
  H         7.2175849764        1.1969793968       20.6035586563
  H         7.6997417647        1.3126277747       18.9439488451
  C         6.2782568452        2.7224999792       19.4032047692
  H        10.1645349378        1.3598648018       19.5854858048
  H         9.6992078048        0.9386933300       21.3056450189
  C        11.3387606999        2.3886509585       20.9532894081
  H         9.2398368130        3.5907795550       17.7234813372
  C         9.6693805113        6.4363158823       17.1593606785
  H         0.3599856712        6.6310595057       27.2321177867
  H         1.7083690054        7.2504281901       27.9748437857
  C         0.9219209282        5.4109898388       28.8078790502
  C         4.9022130527       -0.5852709842       32.5933623288
  H         6.3991476572        3.2224929026       18.4706631881
  H         5.9591666991        3.5425358991       20.0781263192
  C         5.1105818349        1.7224459270       19.2423614486
  H        11.4247272770        3.0857285227       21.7926896421
  H        11.6244164479        3.0462924672       20.1553467136
  C        12.3629340519        1.3461854239       21.0775624520
  C         9.8509234692        7.8622829542       16.9912699030
  C        10.0154752292        5.7150726376       15.9991199024
  H         0.0519260113        4.8054596242       28.4826094791
  H         1.8138017749        4.6852135132       28.9454821456
  C         0.7612972404        6.0306522084       30.1985859683
  H         5.2558998594       -1.6074417328       32.4821768516
  C         4.6491885187       -0.0468874806       33.8505548720
  H         4.6992196120        1.2992965438       20.1597867027
  H         5.5047031074        0.8210793060       18.7500002224
  C         4.0591499877        2.3717736405       18.3600549189
  H        12.3413586730        0.8034407295       22.0077695055
  H        12.2829046966        0.6254299210       20.2813523881
  C        13.7807461168        1.9248363443       20.9714229324
  N         9.5748460350        8.7350540442       18.0231286422
  C        10.1171228970        8.4796666966       15.7591239045
  C        10.3750251693        6.2412903284       14.8227921794
  H         9.9669119708        4.6471246295       16.1052662029
  H         0.7795041569        5.1592559653       30.8677569119
  H         1.4685697069        6.7890224891       30.2307321449
  H        -0.0046133750        6.7234296858       30.3228895439
  S         4.2155390779        1.5730330465       34.3193463401
  C         4.6145096070       -1.0424887957       34.9491929164
  H         3.4213015698        3.1135719372       18.9526641265
  H         4.2450210425        2.8686026662       17.5050964841
  C         2.9401131476        1.3943014460       18.0781257009
  H        13.8479382571        2.5472687718       20.0565134093
  H        14.5526751069        1.0852503903       20.8685300748
  C        14.1884061477        2.8721865786       22.2237155548
  S         9.6544710763       10.2480291167       17.4578238290
  N         9.9816174983        9.8730975749       15.8531807247
  C        10.5104510606        7.7229638280       14.6732080318
  H        10.6600761439        5.4869870263       14.0017707950
  C         4.2419185334        0.9533112552       35.9397192049
  N         4.3827550864       -0.3799239775       36.1173059712
  O         4.7877907154       -2.2470048142       34.7599022087
  H         2.1719907295        2.1442925750       17.8143486287
  H         2.5850143259        0.8896310910       19.0485288492
  C         3.4296928140        0.4211902478       16.9932533046
  H        13.5837999149        3.6641365993       22.0371856468
  H        13.7804880306        2.5336622690       23.1378504152
  C        15.5738158038        3.2943167637       22.2268592567
  C        10.7453448604        8.4711423573       13.4304734461
  S         3.9064772399        1.8989099054       37.3587053263
  C         4.3205567404       -1.0040924029       37.3595466071
  H         2.9879637499        0.5831031453       16.0884731455
  H         4.4556010906        0.6935943512       16.6248943213
  C         3.2920496566       -1.0673238432       17.3190176969
  H        15.6064891564        4.1366627526       22.9061084833
  H        15.8596651110        3.6876978899       21.2785541930
  C        16.5380173063        2.2324445367       22.6289530554
  H        10.4403932146        9.4194320676       13.4464179586
  C        11.2231632755        8.0697421164       12.2000937164
  H         3.4854539662       -0.6906894342       38.0541069636
  H         3.9016545242       -1.9987437440       37.2913350184
  C         5.6034733848       -1.0283066085       38.0573135718
  H         4.0170935323       -1.4342871191       18.1156533976
  H         3.6601062669       -1.6604339789       16.4016470467
  C         1.9250066319       -1.4353512231       17.7614501392
  H        16.2135784123        1.8361034209       23.6275840489
  H        16.4956986884        1.3903644707       21.9685620286
  C        17.9975271794        2.6587707047       22.4470748187
  S        11.9266942166        6.6075754098       11.8087489884
  C        11.2863243858        9.0694962935       11.0931514217
  H         5.8182717354       -0.2671142013       38.7727330922
  H         5.6233386541       -2.0402790738       38.5054052655
  H         6.4913897231       -1.0876055779       37.3278639882
  H         1.5887892722       -2.3514388749       17.3128126808
  H         1.2741508005       -0.5636698691       17.5945693626
  H         1.8814519963       -1.5119339110       18.8259353626
  H        18.3333397473        2.7373462799       23.4424752749
  H        18.2207379813        3.5443553556       21.8176237612
  H        18.5935481845        1.9091962695       21.9663546452
  C        11.8877742287        7.1243643127       10.1518909825
  N        11.7938505224        8.4358112991       10.0073183283
  O        11.0789295149       10.2917364882       11.2442498797
  S        12.6945262039        6.1958839257        8.9372196740
  C        11.8400865883        9.2277304551        8.7627163418
  H        12.4246143804       10.1645653216        8.9286395024
  H        12.5678235330        8.9001850326        8.0100210395
  C        10.5259633458        9.4054437586        8.0824479184
  H         9.8078761321        9.7655966548        8.8264389586
  H        10.3288259483       10.0860178097        7.3016291686
  H        10.3309914157        8.3978184267        7.7670164677
  H         4.2430550245        1.8018126728       12.6315338522
  C         3.7142296599        2.7746404441       12.6455933342
  H         4.4013030554        3.6302733387       12.7296617827
  C         2.7663009717        2.8356734540       11.4327912180
  C         2.9737155081        2.6786488835       13.9626014107
  C         3.6158112241        2.9776779505       10.1222701330
  H         2.0668790918        3.7125838483       11.5832676429
  H         2.1204611356        1.9915059085       11.2528009241
  H         2.3386612531        1.7075992346       14.0524199892
  H         2.2454334437        3.5410230484       13.9940990008
  H         3.5586279885        2.7655486919       14.8814284261
  C         4.4244813641        1.6935083144        9.8107969529
  H         2.9632085905        3.3497535646        9.3573753465
  H         4.3416823526        3.7633799140       10.2656739596
  C         5.1176922397        1.8797088977        8.4877117260
  H         3.8028204269        0.8276499920        9.8777060303
  H         5.1264128134        1.5470407949       10.5914402733
  C         6.3617678071        2.7115276286        8.5968193290
  H         4.3468219699        2.3141676800        7.8611131769
  H         5.3196117402        0.9252248953        8.1061298927
  C         7.6069447443        2.0364653416        9.0906062840
  H         6.5816307800        3.0273522916        7.5754841171
  H         6.1370851356        3.6445760455        9.0685103076
  C         8.8545178783        2.8330936084        9.2310787889
  H         7.7265752128        1.0274105972        8.5852944720
  H         7.5522924618        1.8789860168       10.1753395886
  C         8.5203616575        4.1409630331        9.9624674644
  C         9.3028584728        3.5475814062        8.0306378631
  C        10.0666548243        2.1202552128        9.9000709086
  C         8.7278441309        5.2794971649        9.1725818741
  C         8.0222299382        4.5480633838       11.2267606607
  C         9.1897302271        4.9016778487        7.9047639057
  C         9.8554621351        2.9179198657        6.9069777830
  H         9.8135543235        1.6858398645       10.8358007030
  H        10.3923667020        1.1766594129        9.3792140668
  C        11.2354433996        3.0520938885       10.0666544352
  S         8.4824651622        6.7680886390       10.0063159116
  C         7.9555840352        5.8890424557       11.3444098675
  H         7.8661273289        3.6860161693       11.8494438921
  C         9.5282177860        5.5541887000        6.7387407953
  H        10.0720826154        1.8733082654        6.7989227519
  C        10.2014241685        3.6354570103        5.7650221513
  H        11.0498694820        4.0324427931       10.3346928484
  H        11.7475515817        3.1598796582        9.1111544906
  C        12.3062939599        2.5947519888       10.9742152275
  C         7.3569991806        6.5241364511       12.5353277401
  C        10.0616047148        4.9419278611        5.6118974112
  H         9.1839009986        6.5793375820        6.6564554294
  C        10.7712768705        3.3145206326        4.5220116660
  H        13.2315078539        3.0703259913       10.7068839697
  H        12.5624687922        1.5279675458       10.8579436556
  C        12.0047401202        2.9635810714       12.4705457382
  C         7.3895475662        7.8754382593       12.8186445774
  C         7.0068596312        5.6178504982       13.6683798542
  C        10.4437405528        5.6400874791        4.3663942584
  C        10.8563893378        4.3736676563        3.6875525623
  S        11.2057738634        1.7578104160        3.7732704267
  H        12.8784562916        3.4350505928       12.8702432628
  H        11.2833615919        3.7492593054       12.3985387298
  C        11.2793127287        1.9427528805       13.3850376110
  N         7.9244553952        8.7773017309       11.9596463310
  C         7.1714335965        8.4649075749       14.0780643387
  C         6.6914939964        6.2443474637       14.8927942746
  H         6.8474776618        4.5637165958       13.5403416832
  C        11.6580434839        6.5807149863        4.7125348581
  C         9.2761514193        6.3071201395        3.6825385749
  C        11.3065695612        3.9234973631        2.4279676416
  C        11.4070116628        2.5470085106        2.2675879535
  H        11.8027935863        1.0247338146       13.3509856587
  H        10.2530928528        1.7459275364       12.9388846064
  C        11.3243864612        2.1718905272       14.8844180403
  S         7.7348123629       10.2374173286       12.5621178623
  N         7.4083106443        9.8055753722       14.0502332829
  C         6.7743466475        7.7145407927       15.2200526585
  H         6.2550534788        5.6587680850       15.6487326414
  H        11.4032897351        7.2568261370        5.4816151315
  H        12.0567480302        7.0268917151        3.7744389612
  C        12.8236230606        5.8555850295        5.2748526201
  H         8.8431717711        7.0536221798        4.2174168127
  H         9.7972416710        6.8944245540        2.8400693957
  C         8.0617008532        5.4813931217        3.2228894486
  H        11.4406475090        4.7019345594        1.6626562671
  C        11.7884480630        1.7297767157        1.0430296801
  H        11.0587552046        3.1911264892       15.0745373318
  H        10.4691499608        1.6658063757       15.4375208672
  C        12.6761525679        1.8155516162       15.5975572247
  C         6.5129098652        8.3858988939       16.4478352101
  H        12.5751382093        5.1654348343        6.1289771566
  H        13.0981276140        5.1237641292        4.5389250487
  C        13.9549031437        6.7907190079        5.6099019823
  H         7.5614209177        4.9953618426        4.0571373524
  H         8.3634216014        4.7038943557        2.4146154888
  C         7.0819343138        6.3905501436        2.5901753906
  C        11.8180603917        0.3045932659        0.9392504904
  C        11.9154420608        2.5298837851       -0.1904494557
  H        13.5269428200        2.3927693246       15.1547721677
  H        12.8926871285        0.7842254636       15.3998411611
  C        12.5949838968        1.9794471384       17.1261285318
  H         6.7987945229        9.4374766120       16.4473004982
  C         6.1228203452        7.9660155746       17.6792306766
  H        13.7745922927        7.2123622259        6.5660553317
  H        13.9290869773        7.4759937242        4.7907214529
  C        15.3597674935        6.0559258233        5.4460807108
  H         6.6857810547        7.1281161164        3.3761414649
  H         7.6087134704        6.8996252734        1.7575403528
  C         5.8870650595        5.6713877186        1.9532225418
  N        11.4984114534       -0.6560861931        1.9278697350
  C        12.0474198628       -0.3121891511       -0.2690111278
  C        12.2344610937        1.8525700068       -1.3871365590
  H        12.2328180386        3.6051627298       -0.1345889395
  H        12.8557182840        0.9916829684       17.7240444262
  H        11.6937551642        2.4352174825       17.5790312711
  H        13.4043009786        2.7144862888       17.2409163124
  S         5.9909581183        6.3614682667       18.1783555853
  C         6.0349904248        9.0192065220       18.7792718529
  H        15.3660299534        5.0436601066        4.9901788471
  H        15.9349074901        6.5561592058        4.7138128782
  C        16.0851200368        6.0769082838        6.7945901135
  H         5.3875012115        5.1993440891        2.7865888915
  H         6.2552705674        4.8910234574        1.2263800305
  C         4.7743137502        6.6338195586        1.4612238489
  S        11.5743804047       -2.1617801456        1.2212133818
  N        12.0413710116       -1.6673513677       -0.2296833830
  C        12.4192753970        0.3819320995       -1.4645005224
  H        12.3982478976        2.4730648089       -2.3237141917
  C         5.7721176340        7.0732124655       19.8357118231
  N         5.9062731655        8.4200559296       19.9587837282
  O         6.2506298359       10.1793224315       18.6266020396
  H        16.2841367177        7.1390112308        7.0681296522
  H        15.4616870522        5.3374284380        7.4699882094
  C        17.4778562100        5.4343448725        6.7047332492
  H         4.9815350783        6.7853946326        0.4109583092
  H         3.8241867760        6.0410548437        1.4030524559
  C         4.4259544280        7.8616908954        2.2547423805
  C        12.6388721553       -0.3229930412       -2.6917864927
  S         5.4702440230        6.2872602240       21.3202429529
  C         5.9165353752        9.2343091776       21.2475475272
  H        17.9388780843        5.5051469304        7.7225564146
  H        17.3932621774        4.3658395086        6.3671686386
  C        18.4457724902        6.1230354741        5.7481210775
  H         5.3217052104        8.5520985701        2.3110985222
  H         3.9609493698        7.4665234502        3.1570518258
  C         3.4111770154        8.6380814775        1.4508161403
  H        12.5444015469       -1.3857274929       -2.6495420657
  C        13.1712496673       -0.0834511085       -3.9345951565
  H         5.2008310304        8.9059124156       21.9095022650
  H         5.5730988969       10.2632686875       21.1356502711
  C         7.2671728976        9.0973169338       21.9861800514
  H        18.2451859048        7.2152678048        5.8267106105
  H        18.2161232361        5.7716620972        4.7680593458
  C        19.9360361194        5.8327222801        6.0610230501
  H         3.1324509802        8.1540145933        0.4827354959
  H         2.4178844483        8.6680479768        1.9783406467
  C         3.8662348233       10.0679260528        1.1411207456
  S        13.5488911137        1.5289832932       -4.4396659136
  C        13.4000029131       -1.2110778441       -4.9659472281
  H         7.4074065268       10.0056295395       22.4411496993
  H         8.1226904631        9.0169539719       21.2976801431
  H         7.2111621035        8.3499080970       22.7656761228
  H        20.7008439835        6.5051172683        5.6326496046
  H        20.1244858251        5.9669520838        7.1434699395
  H        20.0718503236        4.7405350992        5.8834193544
  H         3.1566487021       10.5586176676        0.5452557601
  H         4.0941319639       10.6068835258        2.0607590864
  H         4.7182463715       10.0522406658        0.5182925739
  C        14.0777839869        0.7720159924       -5.8987422653
  N        13.8878346240       -0.5613487336       -6.0573769739
  O        13.1699758681       -2.4349945873       -4.8012016654
  S        14.5666236092        1.6667265659       -7.3569248979
  C        14.1829111341       -1.3214879393       -7.2570258210
  H        14.7821015666       -2.2396358057       -7.0476442885
  H        14.8251246906       -0.8742123182       -8.0491253671
  C        12.8743274386       -1.5270204749       -7.9259674314
  H        13.2074201216       -2.2561902894       -8.6760715038
  H        12.4781245153       -0.5893093070       -8.3647833842
  H        12.2514953362       -2.0175701578       -7.2723112752
