352
 i =    67900, time =    33950.000, E =       100.3271162232
  H        12.2318592493        6.6309907653       32.0967412027
  C        11.3244178381        6.0791170104       32.4201238125
  H        11.4772725282        5.0126064933       32.4351752768
  C        10.3129426460        6.4656219433       31.3468398539
  C        10.9017079117        6.4647655381       33.8723022250
  C        10.5750670770        5.7500583074       30.0355676800
  H         9.3021389824        6.1744248153       31.7653975162
  H        10.3464083778        7.5797967166       31.2489182255
  H        10.4241622597        7.4607800946       33.7481513927
  H        10.1898383107        5.7905068511       34.3670261279
  H        11.6981298042        6.6290529894       34.6085492453
  C         9.7021918052        6.3672264102       28.9538450808
  H        10.4401506168        4.7220386581       30.0220251158
  H        11.6515366218        5.9418683867       29.8156737515
  C        10.2795493994        6.1752468858       27.5689690189
  H         8.6687720883        5.9909216138       28.9670161042
  H         9.6881557212        7.4378298659       29.0821133424
  C         9.4267154618        5.3445958648       26.6143256312
  H        11.2817318546        5.7761164859       27.6256862757
  H        10.3793649715        7.1631016062       27.2203930735
  C         8.2709475524        6.2511194772       26.1215399421
  H        10.0268600274        4.9234912715       25.8658720020
  H         9.0498230153        4.4469813206       27.1479948115
  C         7.2996912937        5.4284691110       25.3101912615
  H         7.5667957182        6.5714951464       26.8934369063
  H         8.5369664345        7.0893803620       25.5064827627
  C         6.9361304932        4.1477637328       25.9672344092
  C         7.8600256676        4.6552304865       24.1309998971
  C         6.0262161986        6.2563545596       24.9350635973
  C         7.2829357806        2.9787942143       25.2918842492
  C         6.4140493645        3.8212134130       27.2277656979
  C         7.8701930550        3.3196677012       24.0855016312
  C         8.2763452056        5.2145719359       22.9380833658
  H         6.1684883697        7.1324421739       24.2865654888
  H         5.8027197047        6.6318265439       25.8587361910
  C         4.7878633254        5.5517259650       24.3573139816
  S         6.7298741130        1.5245197044       26.0659421260
  C         6.2235986420        2.4901401950       27.3704142358
  H         6.1530694189        4.5965952058       27.9526787420
  C         8.2069776056        2.6747273146       22.9436019590
  H         8.2340355164        6.3102514780       22.8220422867
  C         8.5877964266        4.5698140643       21.7983304900
  H         4.9589842770        5.0641686721       23.3428199195
  H         4.6383661834        4.6888731149       25.0397711239
  C         3.4475765473        6.3601777553       24.3310099573
  C         5.7855930916        1.7555833413       28.5475850771
  C         8.6193976633        3.1908944774       21.6944798764
  H         8.0562400668        1.6176920840       23.0490613191
  C         9.0357555371        5.0079189378       20.5639173241
  H         2.7746937630        5.7522441821       23.7548073169
  H         3.5925598457        7.3719256924       23.8840601216
  C         2.8305138485        6.5533492225       25.7351651329
  C         5.8366283396        0.3445413700       28.6920447713
  C         5.3562809553        2.5093270397       29.7717823261
  C         8.9770850116        2.5431785052       20.3694224862
  C         9.1985808807        3.9250246372       19.7482414778
  S         9.2977831455        6.4969076248       19.7916450373
  H         2.2550884639        7.3701134095       25.7018495918
  H         3.6434123805        6.6135936831       26.4108086673
  C         1.8561410100        5.3199846586       26.0997579109
  N         6.0543083340       -0.6812237836       27.7597753764
  C         5.6357717735       -0.2471624618       29.9603904551
  C         5.0408765073        1.8673721578       31.0064656167
  H         5.1235546573        3.5479587343       29.7250542373
  C         7.8176825004        1.6847553394       19.8644378099
  C        10.3790027910        1.7906877702       20.2663946581
  C         9.5503150587        4.3095499763       18.3863592603
  C         9.7660504275        5.6688313022       18.3021006118
  H         1.1826882874        5.1651452837       25.2363285197
  H         2.4670689832        4.4469314476       26.0792592529
  C         1.1947342585        5.3702279326       27.5286863208
  S         6.2609593731       -2.1473411470       28.3281361359
  N         5.9249136101       -1.6151553565       29.8681321997
  C         5.3126696542        0.4067762102       31.1492151158
  H         4.7671937759        2.5677015329       31.8444884403
  H         7.2241713934        1.3223612187       20.7002058359
  H         8.1848455214        0.8088333527       19.3716573200
  C         6.9084750632        2.4642777018       18.8827225432
  H        10.5749264563        1.6015096538       19.1848980363
  H        10.1314931104        0.9083959612       20.8925620145
  C        11.5147622858        2.5756337958       20.8506877710
  H         9.7298711812        3.5035321329       17.6312251682
  C        10.1538261305        6.5068426323       17.1009088194
  H         0.4845346997        4.5223287902       27.6208585252
  H         0.5124485198        6.2319306398       27.4518248448
  C         2.1101182278        5.4937896689       28.7478725776
  C         5.2381347904       -0.3122529316       32.3721373166
  H         7.3251446736        2.4741201344       17.8516834945
  H         6.7544557439        3.4014251205       19.3830281349
  C         5.5622841510        1.7613848405       18.7647355430
  H        11.3088436962        2.8366830612       21.8462177422
  H        11.6836715218        3.5482837518       20.3126792149
  C        12.8628856843        1.8983222008       20.8668487930
  C        10.1358167498        7.9129915648       17.0014551704
  C        10.2691613333        5.7359121471       15.8673717802
  H         2.8342598929        4.6780973773       28.7556125718
  H         2.6664460626        6.3544709802       28.7567045898
  C         1.4228358830        5.5647760534       30.1476614121
  H         5.5147681974       -1.3429398452       32.3051883130
  C         4.9604117168        0.0705164360       33.6765367593
  H         5.1334638562        1.6841595400       19.7677933633
  H         5.7823596085        0.7592573188       18.3915801419
  C         4.5932377180        2.6238717906       17.8640099545
  H        12.9895756477        1.1468586444       21.5928601973
  H        12.9936676757        1.3902508697       19.9641017472
  C        13.9532939838        2.9116295083       21.1343769305
  N         9.9685456683        8.8128892891       18.1142036121
  C        10.4738483241        8.5572377741       15.8504061113
  C        10.4721604469        6.3659772871       14.6397604993
  H        10.2208812615        4.7141782074       15.8670601530
  H         0.3709936262        5.3304857566       30.2363159228
  H         2.0096655170        4.9355406051       30.7998938765
  H         1.7193337416        6.5035568422       30.5871497807
  S         4.5535402885        1.6309310839       34.2558798809
  C         5.0468359448       -0.9311945631       34.7427012972
  H         4.6566890975        3.7228356993       18.0707163319
  H         4.9669285051        2.4777714681       16.8967563515
  C         3.2062323580        2.0170778353       17.7179990520
  H        13.7836755345        3.9565629366       20.8119303080
  H        14.7604632876        2.5572975559       20.5547707824
  C        14.2203663802        2.9836740750       22.6463134470
  S         9.9804168050       10.3354747310       17.6081060588
  N        10.4103211108        9.9352709148       16.0796825132
  C        10.6304583880        7.8620995479       14.6523483617
  H        10.6382803789        5.7471320746       13.7314147416
  C         4.4797102093        0.9115741686       35.8826032037
  N         4.6818497568       -0.4057067652       35.9131993766
  O         5.2057780781       -2.1593876140       34.4838165364
  H         2.6060505155        2.7322608920       17.1712746472
  H         2.7833029971        2.0257441208       18.7190033880
  C         3.1590472280        0.6544434878       17.0535039347
  H        13.4089439829        3.3457950001       23.3192841301
  H        14.3921937639        2.0033094442       23.0187973791
  C        15.4407915947        3.8849296018       22.9459569163
  C        10.9364008973        8.6085542182       13.4443736037
  S         3.9278490658        1.7025024373       37.3419868801
  C         4.7029447719       -1.1061623569       37.1745881109
  H         2.8230908242        0.7038724146       16.0809074579
  H         4.2158377808        0.2995023732       16.8495315563
  C         2.3480455858       -0.4522761538       17.7689855466
  H        15.5029417479        4.0686552634       24.0393397517
  H        15.3479940548        4.8799504530       22.5201347566
  C        16.8998514851        3.3497166828       22.5595720257
  H        10.3622855495        9.5657740317       13.2583981847
  C        11.5994733639        8.2844915829       12.3071253212
  H         3.9094584268       -0.8140337597       37.8451385421
  H         4.3590730327       -2.1214049819       36.8821936019
  C         6.0856961658       -1.2548258814       37.7398367184
  H         1.3165191794       -0.3408001265       17.6489655264
  H         2.6091889985       -0.4785957728       18.8945187675
  C         2.5557868191       -1.7953898453       17.2324248874
  H        16.9203222245        3.2489028767       21.4985489226
  H        17.7909828732        4.0138740282       22.6845008096
  C        17.3126443268        2.0598272006       23.1114368455
  S        12.3782236207        6.8184170320       11.9317326300
  C        11.6817022396        9.3077304828       11.2532020615
  H         6.5644120974       -0.2987629995       37.7984968904
  H         6.0064376544       -1.5922854371       38.7816145784
  H         6.7229583217       -1.9608382936       37.2620674221
  H         2.4846707172       -1.8486568694       16.1916713336
  H         1.7330243073       -2.3874579656       17.6624455441
  H         3.4598869453       -2.2497403236       17.6314447263
  H        16.4347121359        1.4397782212       23.3009726297
  H        17.9314547997        2.1605858261       24.0541704083
  H        17.9690958582        1.5163608647       22.4303834593
  C        12.7848481919        7.5632333871       10.3809099759
  N        12.3551305939        8.8449245462       10.2237756023
  O        10.9949228850       10.2985825475       11.2278027666
  S        13.4448496380        6.7269348324        8.9976270719
  C        12.3185799815        9.5051013574        8.9506131067
  H        12.2775664666       10.5825454563        9.0662011702
  H        13.2988795160        9.4845666746        8.3964054695
  C        11.1995414457        8.9491361182        7.9520272546
  H        11.5620888673        8.9406833250        6.9697416500
  H        10.8511804148        7.9681442230        8.2059406225
  H        10.3256877751        9.6583454866        7.9226694708
  H         4.5013093808        1.9359461206       12.3530429856
  C         3.7733088280        2.6862320148       12.3711804205
  H         4.3521046389        3.5823752521       12.5584679158
  C         3.0528598068        2.7619802833       10.9758007625
  C         2.7966321045        2.5208237153       13.6027652114
  C         3.9445775840        2.8460397861        9.7720508611
  H         2.5329796647        3.7142264587       10.9921405613
  H         2.4092913919        1.8979859838       10.9874648756
  H         2.1095528051        1.6752695435       13.4037865637
  H         2.2514866527        3.4174314143       13.8651081579
  H         3.4304971739        2.4499523287       14.5263629620
  C         4.8018665545        1.5521734924        9.4145404855
  H         3.3275280339        3.1396190051        9.0252471441
  H         4.4686116692        3.7709982835        9.9959200057
  C         5.5771541739        1.5803344177        8.0674265718
  H         4.1346173611        0.6860477649        9.2799447370
  H         5.4843981436        1.3012459934       10.2228105048
  C         6.8109421740        2.4789021568        8.0949174296
  H         4.9170190556        1.9128980843        7.3071465827
  H         5.9393838940        0.5454819790        7.7254790025
  C         7.9790788407        1.8758188942        8.8330410984
  H         7.1596334807        2.7246650466        7.0681048234
  H         6.5855253279        3.4461144768        8.4901665997
  C         9.1804328979        2.8082176843        9.0129698698
  H         8.3145501398        1.0654150732        8.2145351993
  H         7.7088861690        1.2464050901        9.6995173426
  C         8.8597022673        4.1764757082        9.6566716667
  C         9.5745286944        3.5247266857        7.7596575277
  C        10.3581351404        2.1941927984        9.7960211797
  C         9.0389419465        5.3033775885        8.8847906659
  C         8.4458530680        4.5744721119       10.9171859575
  C         9.5815394807        4.8933942413        7.6950792769
  C         9.9698669166        2.8898116312        6.5799761070
  H         9.9872422173        1.8887122930       10.7928352170
  H        10.5796610511        1.3135378720        9.1708254949
  C        11.5986749484        3.0006151035        9.7643763687
  S         8.6439746419        6.7870486440        9.5421120152
  C         8.2652608980        5.9408836800       11.0042841915
  H         8.2698089362        3.7469446116       11.6226818929
  C        10.0997757739        5.4929394745        6.5534742813
  H         9.9064025408        1.8334717828        6.5899387643
  C        10.4497177829        3.4850136811        5.4534129832
  H        11.3253904283        3.9631864463       10.1562572018
  H        11.9964875244        2.9948644978        8.7740569054
  C        12.6343403287        2.4126286815       10.7560814280
  C         7.7348627269        6.6429936942       12.2312029635
  C        10.5050773953        4.8530949056        5.4000277919
  H        10.0189779644        6.5535250446        6.4188467297
  C        10.8928653577        3.1381428876        4.2322147024
  H        13.6328063038        2.9039947007       10.5375703377
  H        12.7924757806        1.4122576370       10.6243139891
  C        12.1910693404        2.7424363995       12.1992893905
  C         7.7021610443        8.0307153735       12.4957123743
  C         7.2129950069        5.7811552166       13.3236756898
  C        10.9682516387        5.6109873860        4.2017240178
  C        11.1942528707        4.2570646236        3.4747667328
  S        11.1784625947        1.6639068183        3.4527249947
  H        11.8100075128        3.7642304291       12.4419202679
  H        11.4278983138        2.0221625126       12.4964588487
  C        13.4549469974        2.4124137958       13.1116495501
  N         8.0280859906        9.0517685812       11.5810785028
  C         7.3827555975        8.5525689978       13.7203208008
  C         7.0034907395        6.2538312023       14.6203176859
  H         7.0849231821        4.7360196324       13.1233584413
  C        12.3106372764        6.4120168789        4.3157392148
  C         9.7506754445        6.4049522676        3.6043394067
  C        11.5863201313        3.9464240432        2.1884064929
  C        11.5294185113        2.5814580221        2.0202866508
  H        13.8890427000        3.3913036721       13.3061525009
  H        14.2057866491        1.8324784737       12.5651334487
  C        13.0863210783        1.5861623719       14.4250980679
  S         7.7547174685       10.5115044546       12.2030180289
  N         7.4047131075        9.9444381764       13.6681107095
  C         7.1615201856        7.7084790132       14.8135079183
  H         6.5663452285        5.5689014264       15.3508625705
  H        12.1949695634        7.0306667651        5.1672646316
  H        12.5509611966        6.9726051053        3.3922865831
  C        13.5038624384        5.5636173168        4.8351151026
  H         9.2698597172        7.1070458523        4.2977083380
  H        10.1842764231        7.0707349106        2.8596459798
  C         8.4966095577        5.5883639142        3.0513456325
  H        11.6596657760        4.7923525099        1.4843006841
  C        11.8586648443        1.8760018883        0.7542711731
  H        12.1762749396        1.0529234330       14.2252789660
  H        13.7992178825        0.8093894392       14.7452830805
  C        12.8897700780        2.6590288774       15.5304336636
  C         6.9008349925        8.3364651683       16.0470150169
  H        13.2367555019        4.9324666935        5.6866167528
  H        13.7484769427        4.6943251845        4.1413319228
  C        14.7259490416        6.4336652583        5.1647379497
  H         7.9007001985        5.2857050547        3.8950610276
  H         8.8567831708        4.6783858086        2.5312596523
  C         7.4571343954        6.3813862574        2.2086711139
  C        12.0136625876        0.4820810271        0.5621175682
  C        11.9216162209        2.7038877236       -0.4652896470
  H        12.3996017324        3.5885534785       15.1745331507
  H        13.9742810438        2.9409518630       15.7550070348
  C        12.1929320906        2.1190785411       16.8731838150
  H         7.1010528806        9.3805278470       16.0328562806
  C         6.5580982061        7.8756153543       17.3039559920
  H        14.4549709737        7.2226532180        5.8266852886
  H        15.2611103625        6.7348793196        4.2629013310
  C        15.7015680043        5.6215243085        5.9567522454
  H         6.9914296453        7.1442729088        2.8838616309
  H         7.8997542432        6.9253895801        1.4592136487
  C         6.1719113635        5.5165554489        1.7935535867
  N        11.9213947762       -0.4948123684        1.5886062338
  C        12.4203021265       -0.0184837809       -0.6441891848
  C        12.1980602806        2.1882766140       -1.7295858600
  H        11.7193732675        3.7514004028       -0.4309060137
  H        12.8580141518        1.5153050538       17.4723968799
  H        11.2835428783        1.5951158386       16.5706323251
  H        11.8884337623        2.9746998232       17.4730577917
  S         6.2572907038        6.2721754512       17.7873071792
  C         6.4211405818        8.8688801120       18.3158377205
  H        15.2972867954        5.3625540541        6.9205058926
  H        15.8638859338        4.6972720067        5.3554968421
  C        16.9790893438        6.5048080583        6.1384296892
  H         5.8381961314        4.9449865544        2.6666533000
  H         6.4171321638        4.7663985535        1.0250085276
  C         4.9359370293        6.1517817942        1.1719636545
  S        12.0854318205       -1.8972473607        0.9161952629
  N        12.4398832856       -1.4052095263       -0.6062743534
  C        12.5918085300        0.6916013809       -1.8159594829
  H        12.2564495305        2.7798085575       -2.6183288751
  C         6.0239934418        6.8893991550       19.3925812969
  N         6.1246466370        8.2388460066       19.4757279292
  O         6.4393850085       10.0818679158       18.1817122396
  H        17.2459850867        6.9750441462        5.2625961320
  H        16.7709088667        7.4031102719        6.6780290077
  C        18.1436176323        5.6398977682        6.6926407929
  H         5.1180918013        6.7853357678        0.3129565987
  H         4.2576522818        5.3188052936        0.8733615949
  C         4.1351390787        7.0001495457        2.2221534673
  C        12.8336255737        0.0585543275       -3.0469247629
  S         5.5929844553        5.9169806666       20.7719627300
  C         6.0027457165        8.9463916432       20.7585893591
  H        17.8273687366        5.1881548715        7.6890956250
  H        18.2796857217        4.8669269547        6.0375543446
  C        19.4207065834        6.5033219681        6.8022277571
  H         4.7834028320        6.9480454132        3.1744636432
  H         3.1708130006        6.4206103245        2.4911850396
  C         3.7370288639        8.4582595583        1.7439131302
  H        12.3910783249       -0.9311282645       -3.0425755274
  C        13.3315275748        0.4366763425       -4.2353045729
  H         5.4051565762        8.4729020911       21.4802941811
  H         5.3916552135        9.8023548809       20.6000313051
  C         7.3673815003        9.2346274022       21.4375118352
  H        20.1703192938        5.9649640774        7.3985288034
  H        19.3304827601        7.4165536127        7.4627700628
  C        19.9717948497        6.9081704153        5.4334791436
  H         3.1379114353        8.3583001016        0.8820298058
  H         3.1416993258        8.9331175879        2.5331332401
  C         4.7804776464        9.5013185602        1.3024827354
  S        13.9988020649        2.0191368967       -4.5295231659
  C        13.5423751523       -0.5299175473       -5.3208310999
  H         7.8887063363        8.4876187889       22.0730445631
  H         7.2841966203       10.1187802538       22.0811312647
  H         8.1342948810        9.4979875631       20.7251111907
  H        19.9421390159        6.1801619483        4.6669594941
  H        19.4378598595        7.7139562392        4.9908169532
  H        21.0076994026        7.1046338138        5.5353402875
  H         4.7966286533       10.2727884257        2.0305730854
  H         5.7796183636        9.1839163951        1.3018030311
  H         4.5133040239        9.9799164796        0.3378388136
  C        14.2179969475        1.4071303539       -6.1780805314
  N        14.0424168009        0.0764215433       -6.3753702213
  O        13.1418451876       -1.7245606774       -5.3567705334
  S        15.2043717043        2.1618547531       -7.4154955874
  C        14.1956736194       -0.7121099531       -7.5964060209
  H        14.5024146572       -1.7470953753       -7.3481863503
  H        15.0039236210       -0.3576432274       -8.1609575495
  C        12.7870248848       -0.6070030015       -8.3015133299
  H        12.7743142993        0.3694262420       -8.8436122326
  H        11.9569999646       -0.5143745484       -7.5812235686
  H        12.4699672466       -1.4539575795       -8.9328746589
