352
 i =    79800, time =    39900.000, E =       100.4616972902
  H        11.6376576239        6.5520216890       32.2219321742
  C        11.5165842473        5.4206544312       32.0792008947
  H        12.5559821391        5.1249234504       31.6029782929
  C        10.3994950695        5.2475016217       30.9910921203
  C        11.2854790374        4.8083899709       33.4278978211
  C        10.8015501178        5.9482787926       29.6520378189
  H        10.3008972372        4.1351135356       30.9774789902
  H         9.4080566041        5.5690301960       31.3383316626
  H        10.4698261993        5.3082683256       33.9347350983
  H        10.9734009927        3.8212605254       33.3382926128
  H        12.1534020861        4.8223300746       34.0811522824
  C        10.7346469687        4.9440417589       28.5940860291
  H        11.7900355783        6.3624884593       29.8686152959
  H        10.0640566268        6.7439263668       29.3581292387
  C        10.8799167671        5.5054837971       27.1658513244
  H        11.4311778822        4.1588301900       28.6980100221
  H         9.8214065834        4.5058883186       28.5869215700
  C         9.9937249327        4.9223811300       26.1058177334
  H        11.9045014546        5.3143653783       26.8165353621
  H        10.6626280986        6.6092179337       27.0847039678
  C         8.7418084585        5.7522899021       25.9989451245
  H        10.4872136272        4.8905610019       25.1165829032
  H         9.7668601797        3.8209807894       26.2735374983
  C         7.6139399351        5.0547998411       25.3216825699
  H         8.3678766718        5.9989397228       26.9395197370
  H         9.1323261729        6.5984455820       25.5240418799
  C         7.3913607168        3.7262130794       26.0587696950
  C         8.1094201768        4.3446079475       24.0952019359
  C         6.2894342543        5.9440475648       25.1781520451
  C         7.6839254511        2.6419145058       25.2363421096
  C         6.8282224478        3.3190678480       27.2716131654
  C         8.1120461808        3.0073330899       23.9756715041
  C         8.5204467029        5.0051490909       22.9699103501
  H         6.2841272644        6.8156888051       24.5069806143
  H         6.0362253200        6.3075402264       26.1844586404
  C         4.9968092833        5.2049152054       24.8678564926
  S         7.3294960444        1.1141665854       25.9705240091
  C         6.6566663550        1.9929784874       27.3531562438
  H         6.4638175920        4.0804444281       27.9295017078
  C         8.5048792711        2.3978822447       22.8377466041
  H         8.4685758661        6.1050709095       23.0792017237
  C         8.9493046188        4.4043167894       21.8095022653
  H         5.1769382847        4.5580024244       23.9927359262
  H         4.7485047387        4.4239359421       25.6441636722
  C         3.7336750095        6.1599905879       24.5913065576
  C         6.0884528840        1.2865846482       28.5647776146
  C         8.9429309222        3.0714622168       21.6709283810
  H         8.5359104008        1.3087943236       22.8313168169
  C         9.4109235285        4.8320544518       20.6031893766
  H         3.0957386158        5.7955275724       23.8014908556
  H         4.1709084196        7.1287026560       24.3494038136
  C         2.8572495897        6.4437648033       25.8638144444
  C         6.0887772809       -0.0755320873       28.7726851943
  C         5.7617711056        2.0741316943       29.7315008382
  C         9.3558718439        2.3935506575       20.3946787957
  C         9.6712204383        3.7325397892       19.7423919036
  S         9.5772769190        6.3789486185       19.8567577243
  H         2.1364248353        7.2525969005       25.5617033433
  H         3.5528248217        6.7620665118       26.6301495976
  C         2.0152155080        5.2791766833       26.3095964258
  N         6.5193131928       -1.1132794664       27.8883983158
  C         5.8990326595       -0.6561755041       30.0704476686
  C         5.5016175441        1.5752427345       30.9705047271
  H         5.7103151109        3.1097158182       29.7293373176
  C         8.1954600775        1.7795271186       19.6127082519
  C        10.6709235542        1.5229093672       20.5922006460
  C        10.0718883723        4.1641243464       18.4916033368
  C        10.0063289712        5.5560888714       18.3798497675
  H         1.4115577840        5.0524909970       25.4140288341
  H         2.6129424680        4.4111370824       26.4039069716
  C         1.2270312228        5.5068157850       27.5761525949
  S         6.4394575371       -2.5591513983       28.6112740249
  N         6.0808818087       -2.0254046714       30.0710561604
  C         5.5851701928        0.1188760086       31.1990849502
  H         5.3576032572        2.1886838057       31.8903977989
  H         7.8682307100        0.9448319864       20.2676159412
  H         8.6260447945        1.2180404650       18.7468056972
  C         6.8942048107        2.6665981469       19.3979834193
  H        10.9073029503        1.0700952146       19.6453455779
  H        10.3613832955        0.7946804760       21.3301582374
  C        11.8733611816        2.3191820903       21.1700489621
  H        10.1702197167        3.4659246398       17.6764521200
  C        10.2018917873        6.3405348151       17.1029703456
  H         0.5288486140        4.6991954804       27.6799463301
  H         0.6084133029        6.4469739326       27.4858019903
  C         2.1679092120        5.8275389868       28.7108655276
  C         5.4559423378       -0.5671343361       32.4830446669
  H         7.0983928943        3.6517950880       18.8535241339
  H         6.4318201574        2.8985292987       20.4011459618
  C         5.8401649808        1.8480406350       18.5364258819
  H        11.7138146708        2.6655312128       22.2047726327
  H        12.0874771602        3.1628676687       20.5075795958
  C        13.1626870497        1.5087104395       21.1942761065
  C        10.0067283254        7.7413146884       16.9982051021
  C        10.6759950426        5.5980214735       15.8690873136
  H         3.0234811180        5.0662616871       28.5985979680
  H         2.6641774631        6.7738280818       28.5096751001
  C         1.5424813386        5.6884738221       30.1449627919
  H         5.6671992268       -1.6605262538       32.4356041707
  C         5.1427525389       -0.1208406484       33.7708816668
  H         5.2705209741        1.1960229494       19.2220462292
  H         6.3711961054        1.0799359655       17.8024032094
  C         4.9419870223        2.7551618896       17.7843883961
  H        13.0713785123        0.9158735262       22.0853621481
  H        13.3516149685        0.8742496577       20.4069834131
  C        14.4325153304        2.3593542556       21.4089376753
  N         9.7096602589        8.6686986120       17.9686134795
  C        10.3483550651        8.3796067017       15.8104806238
  C        10.7260885688        6.1800292644       14.6313930376
  H        10.7646620933        4.5244078142       15.9369540407
  H         0.6692765695        5.0938077918       30.1916074161
  H         2.2725277616        5.2460519944       30.8193799604
  H         1.3270153822        6.6915796617       30.4574577623
  S         4.6429268491        1.4437990935       34.2833090285
  C         5.0546641663       -1.0818246455       34.8540872324
  H         4.9959531155        3.7564719405       18.1850365535
  H         5.1484238553        2.9169922738       16.7337785901
  C         3.5118163106        2.2311918824       17.7842474740
  H        14.2426763312        3.3994474064       21.0466145901
  H        15.2151476917        2.0376412373       20.7392522234
  C        14.9032964341        2.3303657201       22.9233004157
  S         9.8086861089       10.1469690512       17.3857488707
  N        10.3963627024        9.7627329698       15.9955093036
  C        10.8204855600        7.6974598679       14.6352377286
  H        10.7161348491        5.5405722547       13.7542372292
  C         4.4766666440        0.8333835081       35.9467579840
  N         4.6065087088       -0.5139074529       36.0496635383
  O         5.0842250029       -2.3229541918       34.6442754124
  H         3.0194535967        3.0320843216       17.2409477902
  H         3.1379675143        2.1658726503       18.8068566705
  C         3.4152468516        0.8837144887       16.9842909204
  H        14.0825921644        2.6884374745       23.5829491615
  H        15.0778196198        1.2981100527       23.2349370814
  C        16.1306369617        3.0977880477       23.3157805611
  C        11.3001001516        8.5219996138       13.5136029693
  S         3.9331632125        1.7847818737       37.2926979464
  C         4.4468365918       -1.2219606919       37.2962862817
  H         2.7036043444        1.0032328241       16.1622635677
  H         4.3546418730        0.5702655538       16.4623486528
  C         2.8296216250       -0.3137981213       17.7814261031
  H        16.3727170518        2.9185063344       24.2997900458
  H        16.0609697836        4.1635113383       23.1939295390
  C        17.3492962375        2.6948112296       22.5354893336
  H        11.0202932927        9.5427877707       13.6288897889
  C        11.6867476961        8.1248317146       12.1914904662
  H         3.7231759630       -0.7181758469       37.9660232998
  H         3.9449284058       -2.1353334387       37.0585589482
  C         5.8179604011       -1.4296905877       37.9587045676
  H         2.7267002732       -1.0795016965       17.0602092179
  H         1.8536327363       -0.1126688397       18.1655273204
  C         3.6554414411       -0.9791145699       18.8005561949
  H        16.9675475102        1.9337716345       21.8297810901
  H        17.8258037271        3.5067101139       22.0382740496
  C        18.3378731764        2.0374718672       23.4865211215
  S        12.1518376021        6.5815149776       11.7133308603
  C        11.7519957867        9.1744244824       11.1323404906
  H         5.7571621815       -1.9418843998       38.8848783417
  H         6.5299694352       -1.9546708048       37.3985567499
  H         6.2704666512       -0.4440393092       38.0968108448
  H         4.7249402039       -0.8975848990       18.6348883112
  H         3.3928249227       -2.0061261755       18.9317658291
  H         3.5670311332       -0.4355593807       19.6917483455
  H        18.8916609979        2.7124184533       24.0824371721
  H        19.1089831721        1.5150820672       22.9597542266
  H        17.8522060392        1.2556705728       24.1097167700
  C        12.4750277831        7.3039363126       10.1273348102
  N        12.3102601284        8.6613874884       10.0870043522
  O        11.3420943704       10.3036690438       11.3404722744
  S        13.5006475176        6.5243662058        8.9253699050
  C        12.3827194296        9.4794364427        8.8270460655
  H        12.4140346019       10.4801945623        9.1577843053
  H        13.3410002299        9.1861716006        8.4404659539
  C        11.1367356094        9.0927864267        7.9489870947
  H        10.3534117686        9.7936908742        8.0988893413
  H        11.3559448894        9.1771464549        6.8738905721
  H        10.8251633168        8.0995291834        8.0342100542
  H         2.7219474889        2.0411656704       12.8964566189
  C         3.4582945304        2.0965466827       12.1422904929
  H         4.0043563006        1.1653990225       12.0465647079
  C         2.8616140770        2.6374948735       10.8254820985
  C         4.4551735953        3.0550322522       12.8082910223
  C         3.8620935373        2.9029381039        9.7376328870
  H         2.3690327087        3.6389742984       10.8967611264
  H         2.0533778541        1.9376806393       10.4846594864
  H         5.3285376452        2.5015143431       13.1328332865
  H         4.1044207550        3.5929000975       13.6821695163
  H         4.9576260776        3.7389521722       12.1251094681
  C         4.7730239053        1.6916046866        9.5494955730
  H         3.2449774665        3.1397148576        8.8701676921
  H         4.3474498984        3.8911222448        9.9413774411
  C         5.7598304744        1.8940397521        8.3604724721
  H         4.1244417808        0.8319692722        9.4043390246
  H         5.3414435585        1.4748163022       10.4090104051
  C         7.0447371055        2.6543609774        8.7154894336
  H         5.3020550489        2.5014509106        7.6288516770
  H         6.0209260525        1.0254739607        7.7704586043
  C         8.1513046052        1.7932959820        9.3988268898
  H         7.4742530549        3.1912983195        7.8528469017
  H         6.7098303758        3.4857696616        9.3733211480
  C         9.4095778004        2.6826386603        9.5426843055
  H         8.3164109973        0.8290800732        8.9557563470
  H         7.7903503994        1.4678734001       10.3698961166
  C         9.0523109003        4.1224099968       10.1455791007
  C         9.9295020987        3.4120874657        8.2217713936
  C        10.5367830139        1.9281409298       10.2771677823
  C         9.2045875930        5.1650783812        9.2362646536
  C         8.6885266331        4.5818316690       11.4114884286
  C         9.7604483963        4.7915444849        8.0550670982
  C        10.3110225190        2.8121439584        7.0155305882
  H        10.1317692639        1.2455740087       11.0680187522
  H        10.9216125752        1.2541811832        9.5103804384
  C        11.7215709496        2.8029717608       10.7444115983
  S         8.7700110036        6.6679869083        9.9353223932
  C         8.4270561695        5.9196509870       11.4115850225
  H         8.4551658756        3.9316171613       12.2770262198
  C        10.0348834074        5.4532427333        6.8978416692
  H        10.4230572478        1.7804519617        6.9318110144
  C        10.4975368705        3.4785451659        5.8311155998
  H        11.3366832677        3.4312062689       11.4787810518
  H        12.0255463311        3.4066622176        9.8958865937
  C        12.9058140013        2.1306139441       11.4181515046
  C         7.8168288472        6.6010902944       12.5758835730
  C        10.3553354110        4.8202173648        5.7106904932
  H         9.9358987681        6.5624416870        6.8427338923
  C        10.8290689443        3.1013397842        4.5547784345
  H        13.6024116301        2.9708522979       11.6434338757
  H        13.4538651082        1.4375030985       10.7933921913
  C        12.6344456270        1.4500484087       12.8190977262
  C         7.7785500371        8.0041051599       12.8727163525
  C         7.3106007382        5.8222630130       13.7399212226
  C        10.7718692670        5.5499801690        4.4419826379
  C        10.9510675329        4.2170038376        3.7126885012
  S        11.0524612841        1.6013208068        3.7663347955
  H        11.7653530821        0.8130246987       12.8356349820
  H        13.4131647958        0.7595308861       13.0853414279
  C        12.5336382228        2.4603194572       14.0222417134
  N         8.1321984557        9.0258475413       11.9791490953
  C         7.4436633912        8.6289684934       14.0814615528
  C         6.7875260907        6.4084154827       14.8756026605
  H         7.1656324042        4.7689437865       13.6073270030
  C        12.0781229032        6.2989812191        4.6010587408
  C         9.7990683660        6.3617889162        3.5001460316
  C        11.1922063360        3.7372041695        2.3482254929
  C        11.3741604352        2.3594415172        2.2850591770
  H        11.6564683777        3.0944718028       13.7445866139
  H        13.4936940421        2.9852166682       14.1620345917
  C        12.3467179124        1.8118579878       15.3191873509
  S         8.1115785049       10.5320274804       12.6207217098
  N         7.6485688438       10.0492925424       14.1264805417
  C         6.9400952112        7.8710391574       15.1537796574
  H         6.2598646211        5.7696176581       15.5908698803
  H        11.9050463947        7.1063720290        5.2948250482
  H        12.3454394354        6.6262833125        3.6115386582
  C        13.1765212574        5.4808538332        5.2965490141
  H         9.7135100376        7.3981251220        3.7230430431
  H        10.3839293635        6.4202125707        2.5676873240
  C         8.4539054957        5.6879607689        3.2593973249
  H        11.3181141463        4.4178409958        1.5175135631
  C        11.8154736948        1.7165014308        0.9871664109
  H        11.3597891678        2.1051163465       15.7195046299
  H        12.3040000223        0.7189919759       15.2665454329
  C        13.4158149811        2.1698758558       16.3691218665
  C         6.7341952577        8.5307772137       16.4390050940
  H        12.8487523014        5.1050900897        6.2629899604
  H        13.3412918696        4.5939384869        4.6960191760
  C        14.4098845645        6.2925397144        5.5712575977
  H         7.7952188111        6.0206274582        4.0486007634
  H         8.4145396598        4.5730555557        3.3167261060
  C         7.9046764340        6.0484425372        1.8794137225
  C        11.8093294823        0.3188828357        0.7568717203
  C        12.0193272490        2.4969580248       -0.2031553227
  H        13.4494924870        3.1897356252       16.6318623189
  H        14.4913195840        2.0327410729       16.0606115135
  C        13.2146894407        1.3589759419       17.6105316545
  H         6.6468398281        9.6390286115       16.2540385237
  C         6.4391527137        8.0735224494       17.6846041957
  H        14.1586913468        7.0128338123        6.2704811838
  H        14.7177861517        6.9155349775        4.8083863552
  C        15.5476268500        5.3852906473        6.1132977421
  H         8.0484157631        7.0423965396        1.5063385479
  H         8.5198443260        5.4719855951        1.2460460095
  C         6.5322275923        5.3510621523        1.5020359891
  N        11.6193952913       -0.6595525875        1.6985964440
  C        12.1898732687       -0.2090050543       -0.4515648237
  C        12.3444284769        1.9592685869       -1.4416678886
  H        11.9129662535        3.4852026412       -0.1447615516
  H        13.7731922643        1.8584681267       18.3802950225
  H        13.5116964537        0.3501098893       17.4950887878
  H        12.2998855287        1.4577376450       18.0682843601
  S         6.3326730558        6.4203545647       18.2280699589
  C         6.3555730629        8.9890211421       18.8433297332
  H        15.0537306547        4.8661006826        7.0138079356
  H        15.9216306422        4.7145784531        5.3934144715
  C        16.5993630308        6.3656268118        6.6605358695
  H         6.3742298154        4.6379926684        2.3076136790
  H         6.6018894743        4.8553810707        0.6028535168
  C         5.2771807601        6.2316677756        1.5410562510
  S        11.9329022139       -2.1328368639        0.9982768428
  N        12.1971877948       -1.5731849001       -0.4882182260
  C        12.4078666521        0.5180265881       -1.6404542806
  H        12.6072199746        2.5936965211       -2.2464891926
  C         6.0762902989        7.0139846900       19.9002774037
  N         6.1272847413        8.3276142013       20.0040493959
  O         6.4741889840       10.1972635894       18.6421388316
  H        16.7766343969        7.0620311360        5.8403327974
  H        16.2411463464        7.0443693151        7.5155055464
  C        17.9018236739        5.5669825817        6.9021669100
  H         4.5820617476        5.7891653618        0.8335670453
  H         4.9677359200        6.0922891094        2.5431481650
  C         5.5393518251        7.6527681315        1.2491390767
  C        12.8534496940       -0.1303289528       -2.8304297786
  S         5.8018802223        6.0224235387       21.3285359415
  C         6.2302950004        9.0271084490       21.3114585285
  H        18.3131985177        5.4950630707        7.9341752890
  H        17.7070525616        4.5540443219        6.6252394947
  C        19.1191867486        6.0489788436        5.9836358902
  H         5.9289102662        7.5990487334        0.2373465837
  H         6.2822576703        7.9890293839        1.9441109817
  C         4.3080913904        8.6478896068        1.2753910050
  H        12.5791155152       -1.1434962195       -2.8954621133
  C        13.3753546747        0.3322878510       -3.9768039039
  H         5.6837067516        8.6510831193       22.1805713688
  H         5.8951674720       10.0063551860       21.1680571949
  C         7.7162632389        9.0653700057       21.7359874104
  H        19.6924802963        6.5899582133        6.6708662111
  H        18.7981385360        6.6792164328        5.1258868019
  C        19.8684113973        4.9314647230        5.3842865995
  H         3.5690728361        8.1169282813        0.6790256269
  H         3.7869027375        8.5368157653        2.1510573122
  C         4.5634593998       10.1585603472        1.1094676055
  S        13.6676161881        2.0493780932       -4.4044984132
  C        13.6210261458       -0.6555110077       -5.0010771488
  H         7.8472809868        9.9356716164       22.3149913770
  H         8.1934260807        9.1654786382       20.8127005658
  H         7.9695217132        8.2317362994       22.2702998134
  H        20.9483967172        4.7863737487        5.5797053523
  H        19.4636583573        4.0248940411        5.7600101273
  H        19.8514768660        4.9026460888        4.2943513449
  H         5.4542207859       10.3498980764        1.7839396349
  H         4.8770966986       10.3526191060        0.1054240104
  H         3.6713582527       10.7923727211        1.3272150938
  C        14.1386816964        1.3495112295       -5.9100426513
  N        14.0775842096       -0.0184270157       -6.0874163212
  O        13.3425600673       -1.8338652965       -4.9381338531
  S        14.6065791808        2.3513212595       -7.2638852689
  C        14.2036786084       -0.7646466545       -7.3080240898
  H        14.5076626575       -1.8498942194       -7.1334684937
  H        14.9294138543       -0.3608903037       -8.0151298185
  C        12.8517938448       -0.8833630622       -8.0835070356
  H        12.7624456980       -1.8794675556       -8.5044266970
  H        12.9930221828       -0.3229247016       -8.9685356704
  H        11.9746495230       -0.5839934669       -7.4873018967
