352
 i =    79500, time =    39750.000, E =        99.8313660449
  H        12.1067132445        6.8666428809       31.8853121350
  C        11.9146246530        5.7803704057       32.1066372278
  H        12.7485888461        5.2236734743       31.8595455194
  C        10.9041715750        5.3414920476       31.0721164201
  C        11.4330260724        5.4081109095       33.5053444144
  C        11.3360278184        5.8905723446       29.7287872200
  H        10.6935366673        4.2928424412       31.1695808320
  H         9.8897397746        5.7263033267       31.2248316895
  H        11.0254516295        6.2733929272       33.9158679676
  H        10.6769889261        4.6232244066       33.3832335337
  H        12.2895901941        5.0859517916       34.0011415317
  C        10.7996865249        4.8953660925       28.6868844769
  H        12.4148743833        5.8854170023       29.7657883540
  H        10.9717616447        6.9066285835       29.6318110174
  C        10.8298724917        5.5127922662       27.2942154704
  H        11.5316318262        4.1561316325       28.8250793990
  H         9.8611653793        4.4738197995       29.1031375773
  C         9.9672574584        4.9203642703       26.1792470778
  H        11.8623823685        5.4172971644       26.9269408250
  H        10.5992359381        6.5317628351       27.2918391445
  C         8.6278313708        5.7211718439       26.0950045537
  H        10.5486890702        4.9821136257       25.2227810382
  H         9.8833914243        3.8847875669       26.3505382538
  C         7.4889447491        5.0203599895       25.3954121295
  H         8.2673900767        6.2047413063       27.0393834681
  H         8.9600741964        6.5702099686       25.4639919109
  C         7.1894371816        3.6302728064       26.1427316506
  C         7.8752327761        4.2633499487       24.1388641951
  C         6.2300528842        5.8973398117       25.3819297515
  C         7.4317922110        2.5680722931       25.2704321681
  C         6.8028900692        3.1814365141       27.3985187639
  C         7.9578064006        2.9273196421       24.0851444004
  C         8.2863852671        4.9473964870       23.0059362401
  H         6.4697735703        6.8501558101       24.8404425368
  H         5.8920621080        6.1702794749       26.3823627804
  C         5.0805295816        5.1600950501       24.7079450062
  S         7.1546151882        1.0075242116       25.9989229604
  C         6.6849445228        1.8059898626       27.4462191739
  H         6.7203333465        3.8604203919       28.2398512530
  C         8.4000752606        2.3441519900       22.8748448830
  H         8.1347091763        6.0215364716       23.0517116760
  C         8.8361162181        4.4181074501       21.8759544940
  H         5.3330940470        4.7760615449       23.7139824473
  H         4.7533419154        4.3245198423       25.2819373140
  C         3.7930450318        6.0090511489       24.5687151215
  C         6.1833971945        1.2170076400       28.6997374775
  C         8.9059654469        3.0670908152       21.7736619955
  H         8.4125162376        1.2839011173       22.8033395420
  C         9.3698546128        4.8929894980       20.6667252280
  H         3.0497343453        5.5285301642       23.8491346938
  H         4.0932834098        7.0361719954       24.3081622909
  C         3.0828438902        6.1263602807       25.8481832194
  C         6.1742819971       -0.1439068051       28.9764227512
  C         5.7024753338        2.0703591985       29.8532360326
  C         9.4253729546        2.4260389276       20.5740544210
  C         9.6855971971        3.7750360564       19.8524782404
  S         9.4034711859        6.4090749412       19.8994919251
  H         2.4574586794        6.9953604774       25.7561984294
  H         3.8496493551        6.2689042310       26.6475168554
  C         2.1690120570        4.9290779868       26.2258460097
  N         6.3889532482       -1.0976486128       28.0246638597
  C         5.8344271591       -0.6691708987       30.2211122846
  C         5.3461437843        1.5497658318       31.0734182248
  H         5.6103365817        3.0449764352       29.7319315679
  C         8.4174204621        1.6336934587       19.6522410596
  C        10.7109921135        1.6687650526       20.7679701308
  C        10.0273986611        4.1940241941       18.5891086936
  C         9.7999532891        5.5346682595       18.3639934200
  H         1.3919384013        4.7951029859       25.4717747432
  H         2.6568649291        3.9143422440       26.1535658538
  C         1.5789738206        5.0128370851       27.6908935711
  S         6.4730405213       -2.5236715119       28.7602064580
  N         5.8856609926       -2.0346824294       30.1811327098
  C         5.4996422979        0.0812359661       31.3860148883
  H         4.8931232593        2.1496656815       31.8293478348
  H         8.0807711338        0.8517443568       20.3148416761
  H         8.9754105490        1.2034478048       18.8240104552
  C         7.2713493064        2.5377774218       19.1493624369
  H        11.0401996323        1.1652133387       19.7736600311
  H        10.4429906545        0.7864807973       21.4562251583
  C        11.9627266940        2.4377938372       21.2695308414
  H        10.4302690124        3.4254852993       17.9068703507
  C        10.0854020922        6.2839184164       17.0953218649
  H         1.0739810820        4.0479240087       27.7646592844
  H         0.8376247000        5.7563030866       27.8102851385
  C         2.5780347788        5.2336545188       28.8749307583
  C         5.2363702318       -0.5466750246       32.6123320865
  H         7.4853060359        3.1588896205       18.2764831734
  H         6.9015142370        3.0531349116       20.0327331966
  C         5.9532075924        1.8360753547       18.7910728074
  H        11.7723040786        3.0755122339       22.1868002151
  H        12.3219604261        3.1159584763       20.4159541710
  C        13.1102195960        1.4220700393       21.4567320213
  C        10.0539391712        7.6618184714       16.8825754843
  C        10.3919225937        5.5008783431       15.8876485877
  H         3.1431287545        4.3355863468       29.0674798212
  H         3.3556078881        6.0123870045       28.6099177271
  C         1.9353816635        5.6810326422       30.2194588235
  H         5.4150953080       -1.6057483444       32.6737467084
  C         4.8414072481       -0.0827180669       33.8232787387
  H         5.3988779415        1.5063043483       19.7524814223
  H         6.1614619573        0.9778485262       18.1164291247
  C         5.0016692717        2.6232779247       17.9582182916
  H        12.9003589895        0.8178479215       22.3140291760
  H        13.0615511605        0.7293896119       20.6093212168
  C        14.4838051570        1.9971070149       21.4239679082
  N         9.7649509900        8.5952386178       17.9027236572
  C        10.3605567285        8.2721128405       15.6915527675
  C        10.6634657374        6.0867211000       14.6830419125
  H        10.4281170880        4.4511696791       15.9239589922
  H         0.8797837141        5.3964901251       30.2952259382
  H         2.4566362972        5.2048583866       31.0219654043
  H         2.0413727628        6.7619089316       30.2789239316
  S         4.4433753304        1.5415846641       34.2084930390
  C         4.7820051751       -1.0352412349       34.9861731802
  H         4.9435223555        3.6951487914       18.2316255626
  H         5.3617051936        2.6459157727       16.9118783720
  C         3.6738204413        1.9640096291       17.8347476616
  H        14.5489450159        2.6926873477       20.6218449956
  H        15.0705882663        1.1108989730       21.1194810950
  C        14.8486840163        2.5404365786       22.8424609477
  S        10.0377503948       10.0941900636       17.3764009636
  N        10.4153214727        9.6744532917       15.8176483578
  C        10.6837247951        7.5602030266       14.5445836944
  H        10.9780706390        5.3953540166       13.8932718117
  C         4.3467755973        0.9412026629       35.9040358835
  N         4.4945607680       -0.3719380123       36.0844345761
  O         4.9015809317       -2.2746112302       34.8645699949
  H         2.9766757865        2.8544587631       17.6469885697
  H         3.4795883446        1.4703841062       18.8184431102
  C         3.5290683816        0.8718527674       16.7680236214
  H        14.0170015832        3.1767663855       23.1549594372
  H        14.9980714802        1.6747374849       23.5190815682
  C        16.1957299487        3.3840080862       22.8839675793
  C        10.8726174339        8.2241215488       13.3171297850
  S         3.8881676048        1.9769952088       37.2409916002
  C         4.4268639859       -0.9891954872       37.4139800023
  H         3.0246977477        1.2749393060       15.8599000551
  H         4.5165458100        0.5107377526       16.4978207394
  C         2.6815264215       -0.2297968997       17.4517637266
  H        16.2088442402        4.0986475661       23.7610130779
  H        16.0759899873        3.9712138086       21.9937033022
  C        17.5063675604        2.6173982728       22.7552165022
  H        10.5258399791        9.1643598895       13.3554892502
  C        11.4581287253        7.9922049142       12.0922748263
  H         3.7165205769       -0.4265022352       38.0830112452
  H         4.0052215102       -2.0014358987       37.3177960064
  C         5.8018098324       -1.0761489595       38.1322459651
  H         2.5443021952       -0.9973303424       16.7611589189
  H         1.8121101644        0.1255752679       17.9032897226
  C         3.2289742785       -1.0105925434       18.5948306252
  H        17.4484564559        1.8128659315       21.9876486615
  H        18.4081611258        3.2926307259       22.5091351594
  C        17.9651273132        1.9245347329       24.0340018186
  S        12.2384258465        6.5281688079       11.6478400836
  C        11.2981959318        9.0057444235       11.0288463025
  H         5.6905644665       -1.5783921511       39.0749357915
  H         6.4579979000       -1.7158850493       37.5544766995
  H         6.3012230904       -0.1718785640       38.2071817478
  H         4.2693397969       -1.1637901977       18.6260372172
  H         2.7262495216       -1.9653245485       18.6800370716
  H         3.0445485394       -0.4621022638       19.5205023221
  H        17.9956291933        2.6299466224       24.8576090516
  H        18.9869086702        1.5692403960       23.9212681742
  H        17.2670873708        1.1698400842       24.1392540647
  C        12.4932383092        7.3450751441       10.1001309325
  N        12.0569510858        8.6330167314       10.0035733764
  O        11.0382625300       10.1659669415       11.2529405080
  S        13.2618613853        6.4219280006        8.7821850225
  C        12.2576858134        9.4112167127        8.8321480465
  H        12.4348043786       10.4780380273        9.1301780654
  H        13.2189353505        9.2061717250        8.3952454031
  C        10.9617618526        9.2890178261        7.8679098950
  H        10.7278649989       10.2612041252        7.4818848744
  H        11.1112972674        8.6778394346        7.0434035708
  H        10.1126581494        8.8217623134        8.3663499718
  H         2.7692736701        3.0793218749       13.1077290734
  C         3.4005860284        2.5878192993       12.3943126728
  H         3.2351624891        1.5538160653       12.4405604870
  C         3.2427415832        3.2357533964       10.9548514804
  C         4.8107953549        2.8544130098       12.9033807953
  C         4.4494656600        3.2324373674       10.0180071669
  H         2.9561624005        4.3355601914       11.0818762490
  H         2.2604466595        2.8921787182       10.5381959473
  H         5.5332825863        2.1673116918       12.4379934467
  H         4.8070362992        2.8595297740       14.0031256937
  H         5.1841443529        3.8748242005       12.7402449748
  C         4.6098924228        1.7856077499        9.3808645458
  H         4.1678240771        3.8941493348        9.2444396529
  H         5.3746793226        3.6589473565       10.3974079331
  C         5.4321062987        1.8845060364        8.0976168433
  H         3.6127607472        1.4556116958        9.1471625059
  H         5.0352009216        1.1266551044       10.1438107585
  C         6.7521532785        2.6490506074        8.1962943440
  H         4.6717595170        2.2002419103        7.3518392446
  H         5.6293173212        0.8647409386        7.7740138720
  C         7.7969731604        1.9181235845        8.9849687175
  H         7.0731304982        2.8987165738        7.1920886412
  H         6.6492908828        3.6430949797        8.5441557697
  C         9.0955413677        2.7352999409        9.2133994328
  H         7.9771284175        0.8946255781        8.7049244235
  H         7.4603704016        1.7426346932       10.0024155862
  C         8.6992725537        4.0816125540        9.8627776580
  C         9.5854036828        3.4422453765        7.9672253245
  C        10.1821361933        2.1024249303       10.1616115171
  C         9.0138583789        5.1820967450        9.1066301673
  C         8.1268892296        4.5597196749       11.0397503437
  C         9.6028373181        4.7940213834        7.9138319968
  C        10.0455127593        2.8842455785        6.7705960743
  H         9.5831745247        1.6467293350       10.9947027652
  H        10.7103096676        1.1878125907        9.6945378285
  C        11.2052800114        3.1036683104       10.8095310353
  S         8.6866528525        6.6954634294        9.9025780507
  C         8.0383206561        5.8741606958       11.2153106041
  H         7.8058627885        3.7520899575       11.7278362073
  C        10.0702703849        5.5334225690        6.8666431433
  H         9.9408501604        1.8232042219        6.7460657027
  C        10.4556415891        3.6266123358        5.6673671509
  H        10.8031101983        3.6469794061       11.6420491550
  H        11.5936423167        3.6792411548       10.0156108005
  C        12.3509033926        2.3813133704       11.5827092064
  C         7.5567389574        6.4697720645       12.4819211008
  C        10.4719845268        4.9859866281        5.6431412559
  H         9.9654144379        6.6096587702        6.8999760445
  C        10.7885204490        3.2624411506        4.3711942920
  H        13.1647436479        3.1247869935       11.6794806722
  H        12.8181799430        1.7411996273       10.7885578606
  C        11.9578560416        1.6517079201       12.8482148267
  C         7.6381502022        7.8645813787       12.7484404189
  C         7.2086638954        5.6021263776       13.6446462700
  C        10.9052803644        5.7156192126        4.3819236957
  C        10.9755785825        4.3671670301        3.6306335405
  S        11.0441174575        1.7690857017        3.5842998549
  H        10.9575283378        1.2635923902       12.6861716858
  H        12.5603756702        0.7574886650       12.9204112710
  C        12.0435882357        2.4621053691       14.1611209647
  N         7.7195816059        8.9405388047       11.8229139570
  C         7.4255242657        8.4003417886       14.0004414984
  C         6.9586368558        6.1692249820       14.8719344158
  H         7.1179903959        4.5300464885       13.5623305313
  C        12.2191188280        6.4580732581        4.5944747767
  C         9.8660255765        6.6560774918        3.7339479615
  C        11.2558922477        4.0010439681        2.3055261739
  C        11.3056846087        2.6323197921        2.1984899451
  H        11.0705965732        2.6151838533       14.4894217470
  H        12.5846290246        3.3502671940       13.9016008982
  C        12.7196160475        1.6567641015       15.2045100575
  S         7.8247578469       10.3683058128       12.5602963404
  N         7.5038237870        9.7979226321       14.0397629901
  C         7.0709278430        7.6504923302       15.1622558521
  H         6.7293659350        5.4748678326       15.6937995768
  H        12.0174776794        7.2283448602        5.3597782535
  H        12.5683499725        6.8266175403        3.6082456045
  C        13.3211735978        5.5345877333        5.0302479556
  H         9.8232503892        7.6139903155        4.3274567230
  H        10.3192787344        6.9881849513        2.8171581748
  C         8.5298291567        6.0271814292        3.3221254164
  H        11.4168070558        4.7541503988        1.5466492411
  C        11.6333323515        1.7895677952        0.9700770739
  H        11.9003547047        1.1887534484       15.7307808180
  H        13.3815856556        0.8373793830       14.8414204786
  C        13.3066743865        2.5432493355       16.3202867743
  C         6.8221107530        8.3138048090       16.4102737159
  H        12.9891472637        5.0715141053        5.9961237860
  H        13.5956840289        4.6307820509        4.3892046842
  C        14.5994693570        6.2540082160        5.2940304874
  H         7.7746640064        6.7054314839        3.7284665482
  H         8.4060582133        5.0500908297        3.6835803328
  C         8.2027729323        5.9429271492        1.8493670632
  C        11.8107426827        0.3477465871        0.8969811010
  C        11.8260231670        2.5746283053       -0.2658054809
  H        12.5312248313        3.2991293917       16.5330998868
  H        14.1409810265        3.0489619790       15.9741497544
  C        13.7625954739        1.8330954466       17.5220336942
  H         7.0308772835        9.3998556048       16.2915017208
  C         6.5168161055        7.8575154049       17.6911657350
  H        14.3179499457        7.0825902779        5.9156070085
  H        14.9366422251        6.8209267561        4.4627244037
  C        15.6820296327        5.4018713677        5.9281278813
  H         8.4989318073        6.8290174616        1.3162502476
  H         8.7773868959        5.1412730785        1.4102502272
  C         6.7558732354        5.4523642464        1.5837237204
  N        11.5775195854       -0.6088034911        1.8852963075
  C        12.0891521880       -0.2548541387       -0.3104091930
  C        12.2810037836        1.8854117780       -1.4003366976
  H        11.7052502474        3.6101696641       -0.2915496352
  H        14.4451352750        2.3491933919       18.1464891782
  H        14.2881132740        0.9654386866       17.1689517218
  H        13.0078433985        1.5929074645       18.2040710750
  S         6.0795650253        6.2697675994       18.0428959512
  C         6.5581328415        8.8411687311       18.7466690225
  H        15.1972745057        4.8435915320        6.6716271825
  H        16.0883048157        4.6637146264        5.1549929897
  C        16.6687355254        6.3691764988        6.5974343719
  H         6.5209456157        4.6397315287        2.1496814921
  H         6.7043283662        5.1061057012        0.5504025471
  C         5.6392917716        6.5113651753        1.8354192705
  S        11.6782249898       -2.0564083448        1.2974492673
  N        12.1066945471       -1.6077118998       -0.2221245336
  C        12.4512029553        0.4258725198       -1.4988278402
  H        12.4286799147        2.4534725777       -2.3159436552
  C         6.0105380560        6.9034002588       19.6944488169
  N         6.1820560001        8.2783725991       19.8844668976
  O         7.0975168218        9.9248530272       18.5591730174
  H        16.9564406676        7.2760342161        5.9592015777
  H        16.1129079554        6.8765027148        7.4092496260
  C        18.0028703786        5.6708824045        6.9797405981
  H         4.6546698969        6.0919140069        1.6440699689
  H         5.6585042966        6.9396588547        2.8624111536
  C         5.7393595688        7.7326150579        0.8866770089
  C        12.7183079426       -0.2909697258       -2.6818050151
  S         5.8159239031        5.8784760432       21.1781815255
  C         6.3254302180        9.0165725088       21.1742221708
  H        18.0513505890        5.8163325279        8.0560295998
  H        17.9775342634        4.5935468814        6.7295752056
  C        19.2035175665        6.3570557182        6.3728870354
  H         6.0753410985        7.3513691916       -0.0417127644
  H         6.3779140770        8.5214242883        1.2351611236
  C         4.2466612102        8.2162628254        0.7668290815
  H        12.6252032470       -1.3154086223       -2.5559578298
  C        13.3449783949        0.0665499731       -3.8615065785
  H         5.6348544667        8.6703056806       21.9054987154
  H         5.9654579780       10.0586891977       20.9622109622
  C         7.6657280056        9.1350745215       21.6326684458
  H        19.7864914388        6.7498195737        7.1627966664
  H        19.0207376040        7.0092876040        5.6592213992
  C        20.2339057956        5.4234147517        5.6968556711
  H         3.8868055109        7.7294059717       -0.0556496557
  H         3.4574125517        7.9272787935        1.4615716722
  C         3.9661274783        9.7505591593        0.5839308623
  S        13.8457925294        1.7472846175       -4.3124260786
  C        13.6177728514       -0.8851008182       -4.9722911864
  H         7.6866715158        9.8953338228       22.3772572178
  H         8.4456698105        9.4266242077       20.9279498417
  H         8.0791992148        8.2456308441       22.1654448633
  H        21.0673042621        5.9297763988        5.2530478730
  H        20.5906825567        4.6325561467        6.4760340668
  H        19.7813098391        4.9864830982        4.7977016338
  H         3.1254123682       10.0577788465        1.1663054482
  H         4.8308601836       10.4805065420        0.7897201478
  H         3.7291827845        9.8717761724       -0.4863803870
  C        14.3621866239        1.0877270191       -5.7883049448
  N        14.1763068421       -0.2554383892       -5.9889877785
  O        13.3417726436       -2.0494977369       -4.9569398255
  S        14.8828624531        2.0802758489       -7.2508683802
  C        14.2770031037       -0.8796173519       -7.2976468334
  H        14.3952454997       -1.9323073604       -7.1953290686
  H        15.1678110727       -0.4008718435       -7.7578983611
  C        12.9684029898       -0.6495888447       -8.0399628579
  H        13.0536823635       -0.5607604453       -9.1164169815
  H        12.3893173160        0.2503077895       -7.7698215827
  H        12.3857695603       -1.4982803977       -7.7973050130
