352
 i =   100600, time =    50300.000, E =        98.6670663385
  H        10.4502742814        6.4323260101       32.8276100447
  C        11.4819128009        6.1058535015       32.6349201710
  H        11.9205940399        7.1042181054       32.5066801330
  C        11.5549650592        5.2677018617       31.3722568948
  C        12.0915336511        5.3497940024       33.9176477219
  C        11.1118066537        6.0324945979       30.1750032706
  H        12.5446469258        4.8353179982       31.1233057140
  H        10.9870066288        4.3662651648       31.5513152367
  H        11.4035182438        4.5577083757       34.2109336938
  H        13.1921095008        5.1278735548       33.7560559153
  H        12.0649509976        6.0719054108       34.7170010551
  C        10.3812024928        5.2232844946       29.1180687202
  H        11.9152220150        6.7014105860       29.8315724328
  H        10.3643285474        6.6965981012       30.3829149447
  C        10.8759676185        5.4314042931       27.7017096922
  H        10.6344328344        4.2107278194       29.4654158111
  H         9.3170149650        5.4707690462       29.1405430627
  C         9.8865119358        4.8778401253       26.6518550149
  H        11.8155230363        4.8997419189       27.3972727047
  H        10.9355057769        6.5207675867       27.5208123448
  C         8.5491322298        5.7207235132       26.4096424646
  H        10.4211725013        4.7885290205       25.7198241827
  H         9.7025282922        3.8777552938       26.9895434328
  C         7.4165446549        5.0505381589       25.6823524645
  H         8.2035404829        6.0520630268       27.3542861136
  H         8.7968049498        6.6078788762       25.8790389590
  C         7.1410190395        3.7164761173       26.3357373680
  C         7.9630008588        4.3563404974       24.4284972196
  C         6.1883451981        5.9901220050       25.4423056896
  C         7.4538515100        2.6042287461       25.5494016535
  C         6.6178020773        3.3213909924       27.5706261502
  C         7.9385173764        3.0133158605       24.3210210954
  C         8.3634291067        4.9834050742       23.2622200816
  H         6.4906667639        6.7386571547       24.7525660547
  H         5.9537821679        6.4078158142       26.4000783564
  C         4.9374020909        5.3117796387       24.7587034330
  S         7.1673019146        1.0886715712       26.3060232365
  C         6.5679298076        1.9982973994       27.6908051082
  H         6.2457814766        4.0912145380       28.1486746169
  C         8.4095577019        2.4613998731       23.1414280254
  H         8.3403884784        6.0555339579       23.3242049394
  C         8.7132587790        4.4128710826       22.0290591872
  H         5.2769500798        4.9993615309       23.7352892947
  H         4.6062182398        4.5073460247       25.3728254259
  C         3.6795402084        6.2646830028       24.7377005249
  C         6.1309179614        1.3361134288       28.9571004363
  C         8.7450502893        3.0913977217       21.9130091887
  H         8.4616854202        1.3972798205       23.1864730296
  C         9.1314050262        4.8497902720       20.8072385237
  H         3.0295707207        6.0232225896       23.9267908168
  H         3.9588036333        7.2549099011       24.4592171358
  C         2.9193702080        6.3956955120       26.0854041845
  C         6.0905930078       -0.0519996183       29.2444835665
  C         5.5382388936        2.1814487701       29.9449914266
  C         9.2189276764        2.4389362208       20.6750763274
  C         9.4180002076        3.7519719608       19.9884006962
  S         9.1935035296        6.3680846714       20.0217098677
  H         2.1400010457        7.1389028108       26.0426342124
  H         3.5982680171        6.8244586926       26.8134277815
  C         2.2265514629        5.0911751158       26.5459910574
  N         6.4138173110       -1.0600334195       28.2972972946
  C         5.7719905626       -0.5417215017       30.4801365042
  C         5.2504817114        1.7120926405       31.1889674479
  H         5.5917373308        3.2866838973       29.8708250915
  C         8.0288845010        1.5599903754       20.0967834709
  C        10.5252675640        1.6063700314       20.8782281378
  C         9.9690641943        4.1815815406       18.7147029972
  C         9.8929734112        5.5511817187       18.6039322640
  H         1.5263666245        4.7309430953       25.7940676541
  H         2.9823824923        4.2850879477       26.6275878145
  C         1.6836826954        5.2177294193       27.9989080156
  S         6.4038952845       -2.4993032069       29.0436598949
  N         5.8342581545       -1.9392526877       30.4750290408
  C         5.3290866421        0.2694859220       31.5417781292
  H         4.9422133209        2.4043980877       31.9661872798
  H         7.7027862222        0.9526034400       20.9446951798
  H         8.5464702394        0.8472738796       19.3698187300
  C         6.7272620809        2.2417102698       19.6116931448
  H        10.8413031663        1.3218829268       19.9751852408
  H        10.2384088949        0.6848544534       21.4095962576
  C        11.6815920917        2.3580570657       21.4777359388
  H        10.2948637193        3.3888183528       18.0011364888
  C        10.0938691502        6.3659029301       17.3287365797
  H         1.4304840099        4.2295830199       28.3196555073
  H         0.8611921870        5.9039296840       27.8905842231
  C         2.7699398345        5.5417402134       29.0451318565
  C         5.0928794317       -0.3196279644       32.8081242710
  H         7.0731033809        2.7384940431       18.7209906495
  H         6.2064914424        2.9122304807       20.2969055211
  C         5.7808520748        1.1311424601       19.1423404566
  H        11.4590416690        2.6668958773       22.5283207879
  H        11.7406184163        3.2098728274       20.8095009516
  C        12.9750749618        1.6177169930       21.5076106118
  C        10.1362930770        7.7865655530       17.1085414749
  C        10.5255339249        5.5864950285       16.1581645935
  H         3.5621972916        4.7615774208       29.0125986443
  H         3.2907948028        6.4968838534       28.8309244635
  C         2.2791654142        5.5498784033       30.4689695436
  H         5.1827815971       -1.3918485802       32.6671120878
  C         4.8498621322        0.0250278994       34.1063211254
  H         5.3473958916        0.7149613495       20.0915103027
  H         6.3968420296        0.4008295926       18.5870341840
  C         4.6314578081        1.7262853379       18.2912373314
  H        12.9429584027        0.9863590269       22.4524647695
  H        13.0852790609        0.9851694400       20.5850905293
  C        14.1373965458        2.5133784244       21.5022125491
  N         9.6674261774        8.6608193909       18.0556455227
  C        10.5117578836        8.3579834276       15.9044731437
  C        10.8872423280        6.1374549237       14.9222683392
  H        10.4856805425        4.5055689538       16.1857565656
  H         1.2634723714        5.8643587470       30.6751351609
  H         2.3850966191        4.5300148253       30.8821964877
  H         3.0382471916        6.1428322443       31.0224517648
  S         4.6697984757        1.6846399297       34.6243114767
  C         4.8107455217       -1.0772374315       35.1559724783
  H         3.8594958121        2.2050735101       18.9278959159
  H         5.1265657104        2.5237199610       17.6531967203
  C         3.8493812478        0.8516447145       17.4219173120
  H        13.8989883599        3.3285456127       22.1948221301
  H        14.3610062469        2.9013262815       20.4192191790
  C        15.3323919626        1.8178434108       22.0324348006
  S         9.8912449993       10.1873990868       17.5500862790
  N        10.4746448093        9.7728247474       16.0629867996
  C        10.9234727136        7.6437614500       14.7659596718
  H        11.0828121738        5.4662251184       14.1346419205
  C         4.4950100877        0.9115361164       36.1797085032
  N         4.5278313384       -0.4135415060       36.2646374810
  O         4.8738408696       -2.2880754938       34.9420019986
  H         4.5384636540        0.1674852574       16.9482466303
  H         3.5186220697        1.4243367190       16.5325148273
  C         2.7460464658       -0.0102158713       18.0839917967
  H        15.0726037839        1.4894005380       23.0204850674
  H        15.6998848922        0.8877441510       21.5066479763
  C        16.5599293662        2.6451149303       22.2739209199
  C        11.3432252738        8.3791007729       13.5557257947
  S         4.2001027259        1.6663502503       37.7397054763
  C         4.3753729229       -1.1243220782       37.5306930938
  H         3.3202460900       -0.4915585004       18.8491008779
  H         1.9537050447        0.4571577017       18.7181504224
  C         2.1597201141       -1.0158433322       17.1216366414
  H        16.1461630566        3.5088812302       22.8004371977
  H        16.7957444314        3.0286091353       21.2877181691
  C        17.7516517579        1.8231927631       22.8082343480
  H        11.2187496341        9.4521581245       13.6620528777
  C        11.7501163072        7.9761330964       12.2926605852
  H         3.7575245494       -0.6577021085       38.2825441684
  H         3.9101974215       -2.0695886068       37.2353321503
  C         5.7684705113       -1.4777856122       38.1554615249
  H         2.2393466743       -0.4453282479       16.1531610777
  H         1.1457358825       -1.2227209075       17.4353323633
  C         2.9391751485       -2.3053405616       17.0126679407
  H        17.9932446713        0.9814561691       22.1937752770
  H        18.6025462138        2.4664290931       22.8362045140
  C        17.6259892956        1.4232558021       24.2826386786
  S        12.3183224770        6.4141161493       11.8202364609
  C        11.7813318883        9.0174799785       11.2128971417
  H         5.5598119001       -2.0949897508       39.0500940523
  H         6.5013660825       -2.0977699211       37.4860764984
  H         6.3674966096       -0.6012465728       38.5230517795
  H         3.2444408417       -2.7637863922       17.9917112960
  H         3.8723617725       -2.0458734284       16.4679108428
  H         2.5264161453       -3.0949482289       16.3197123615
  H        18.3713123675        0.7131589430       24.4984124546
  H        16.6690321157        0.9714108474       24.6059321170
  H        17.6080721359        2.2687371921       24.9260545057
  C        12.6571001527        7.2070993172       10.2336867770
  N        12.3341642446        8.5028688352       10.1360886606
  O        11.2823297805       10.1541545240       11.3088337482
  S        13.4011488395        6.4659031930        8.7797015901
  C        12.4585184881        9.3858260943        8.9767146943
  H        12.3224251814       10.4295013916        9.2432868994
  H        13.4597462288        9.2847861516        8.5109648090
  C        11.3954110446        9.0819671369        8.0209499937
  H        10.9289464992        8.1393210589        8.2238694961
  H        10.6040041294        9.8557945112        8.0043429357
  H        11.8120900864        8.9546035960        7.0232597051
  H         2.1483266958        3.5239819707       12.0666201316
  C         2.6242178526        2.5620592375       12.2167221360
  H         2.0476787889        1.7751534309       11.7788704978
  C         4.1088280263        2.5242009825       11.6493525726
  C         2.6271221301        2.4476075858       13.7025987931
  C         4.2121047118        2.5779276791       10.1318203836
  H         4.5632847005        1.5852380809       12.0196661666
  H         4.6175724925        3.4225762251       12.1081440314
  H         2.9470037238        1.4390281684       13.9165048708
  H         1.5679852773        2.5683851933       14.0272255945
  H         3.3433417096        3.1599213172       14.1730531621
  C         4.9409085812        1.2616847475        9.6805842452
  H         3.2069429420        2.5715843565        9.7165631530
  H         4.7032487663        3.4450722402        9.7732297304
  C         5.6900157856        1.4657232188        8.3002113796
  H         4.1988730499        0.5459698043        9.6612633856
  H         5.5193536533        0.8426916947       10.4647952153
  C         6.8493413226        2.4742231757        8.3552247956
  H         4.9304893310        2.0085124760        7.7046981669
  H         5.7733460168        0.5600167217        7.6767337292
  C         8.1262119277        1.7865372587        8.8959061897
  H         6.9900548282        2.7917389046        7.3352664414
  H         6.5665433027        3.3420977631        8.9683773992
  C         9.2311784219        2.8349374209        9.2694068726
  H         8.4146182194        1.1189911806        8.1088859056
  H         7.8545848687        1.2372169296        9.7678176696
  C         8.7142089581        4.1445071486        9.8419414826
  C         9.7305999494        3.5007021998        8.0493268859
  C        10.3837400418        2.1617373429       10.0166212378
  C         9.0366321960        5.2572755961        9.0843081532
  C         8.1009073743        4.5006117777       11.0522909492
  C         9.7130755951        4.8320502171        7.9132067447
  C        10.2926783254        2.8408753874        6.9908196895
  H        10.0623917233        1.3616719742       10.7469981331
  H        11.1080600494        1.6098517548        9.3463451459
  C        11.1788785875        3.2306592125       10.8644553583
  S         8.5925101564        6.7390814809        9.8251759444
  C         8.0518898044        5.8842379957       11.1974078891
  H         7.7410913931        3.8514869241       11.7090970762
  C        10.1477671374        5.4313483339        6.7343531958
  H        10.2367585263        1.6968174545        7.0437729428
  C        10.7030601766        3.4069129804        5.8117916059
  H        10.6992259525        3.5805396265       11.8897141032
  H        11.3715316956        4.1217920857       10.2452932539
  C        12.6166787529        2.7339046811       11.2901857025
  C         7.7102682519        6.5537481415       12.5240320383
  C        10.5646316437        4.7499863374        5.6313739337
  H        10.0748202952        6.4831128367        6.5766984557
  C        11.1035098237        2.9401511147        4.5835976476
  H        13.2743658016        3.5195939758       11.6096588540
  H        13.1265380061        2.2292082030       10.5287772751
  C        12.4980665319        1.8979762174       12.5712442803
  C         7.7179861712        7.9514532488       12.7243900845
  C         7.1951425382        5.7440114818       13.6975571781
  C        11.0936421728        5.3785758430        4.3549989807
  C        11.3422167449        4.0191841257        3.7558393024
  S        11.3234738902        1.4601900622        3.7830108767
  H        11.4748422506        1.7193322057       12.7381093258
  H        13.0731875342        0.9074246666       12.4893210172
  C        12.9351874103        2.5978311617       13.8915450404
  N         8.1623653280        8.9147852088       11.8341187052
  C         7.3914736337        8.5143258451       13.9533213002
  C         6.8326698001        6.2890049791       14.8844672866
  H         6.9903423447        4.7389299972       13.5388283686
  C        12.4682322839        6.1093156447        4.6296166962
  C        10.0503035350        6.2719265415        3.6465119933
  C        11.7057279003        3.5994164938        2.4559631623
  C        11.7727634085        2.2568490613        2.3591600844
  H        12.4867609020        3.5853782095       13.8713266124
  H        14.0815146599        2.7175427382       13.9040490826
  C        12.4462767099        1.8007242069       15.0877321433
  S         8.2384665268       10.3680357392       12.5711627518
  N         7.7132300182        9.8504475872       14.0257649082
  C         7.0710150896        7.7454687707       15.1477665507
  H         6.4715568425        5.6366676795       15.6781919881
  H        12.2881240314        6.8458199281        5.4899784394
  H        12.7835403420        6.6682209203        3.7731052089
  C        13.7279515861        5.2759017174        4.9210862112
  H         9.7749213496        7.0589361990        4.2709445822
  H        10.5432984162        6.7809303779        2.7728535997
  C         8.7798409074        5.4438344095        3.2242975267
  H        11.9086584256        4.3783445513        1.7707974673
  C        12.0277046362        1.5722017880        1.1086393806
  H        11.3917513160        1.7302639506       15.2039431941
  H        12.6177811967        0.7062790522       14.9253228685
  C        13.1696983267        2.3136057405       16.3180126706
  C         6.9367064213        8.4533047807       16.3852691407
  H        13.4925443102        4.6951215760        5.8713608566
  H        14.0916921065        4.6814033019        4.0595266613
  C        14.8545212753        6.1390735486        5.4308651768
  H         8.2088941781        5.1380505524        4.0963727572
  H         9.0068161247        4.5992878251        2.5226865294
  C         7.7680582382        6.2896622287        2.5136704775
  C        11.9069346106        0.1590360268        0.9115401579
  C        12.2315958822        2.3107519275       -0.1988112291
  H        13.0599744780        3.3440840851       16.4148630567
  H        14.2324577674        2.0244690987       16.1844731814
  C        12.6366062505        1.5523028794       17.5341282199
  H         7.1186238539        9.5379591414       16.3239914511
  C         6.6078604547        7.9563708116       17.6204012745
  H        14.4882135860        6.8126348601        6.2066662178
  H        15.0720233958        6.9484925516        4.6924472686
  C        16.0840681849        5.2725768587        5.8110768286
  H         7.3379993259        6.9072088282        3.3152231047
  H         8.2454070378        6.9166594170        1.8088191565
  C         6.5936465379        5.6002384880        1.7724861026
  N        11.6183622349       -0.7939263274        1.9095435088
  C        12.2719141470       -0.4680781797       -0.2870183947
  C        12.3955688212        1.6215471829       -1.4009814535
  H        12.1591308536        3.3342037841       -0.2386363967
  H        12.8574465639        1.9873639905       18.5028767784
  H        13.0746802130        0.5359566400       17.5511965874
  H        11.5528309610        1.3097738577       17.5902887027
  S         6.2098891198        6.2617121327       18.0548354982
  C         6.5408887475        8.9316999787       18.6850400814
  H        15.8481598716        4.6401930623        6.6385990741
  H        16.3684199311        4.6656688032        4.9772967140
  C        17.3086011301        6.0933764623        6.1948130324
  H         6.3990016873        4.5804535249        2.1450651518
  H         7.0865198654        5.4012174916        0.9163217109
  C         5.3104206233        6.4252551524        1.7039341383
  S        11.6389341604       -2.3126752161        1.1756518991
  N        12.1134330955       -1.8785926957       -0.2995490579
  C        12.5460868355        0.1581935733       -1.5330511506
  H        12.5180924189        2.1538767188       -2.3250716669
  C         5.9733154149        6.9800068521       19.6892550509
  N         6.2757220174        8.3078584481       19.8041518758
  O         6.6713350414       10.1655760405       18.5103146634
  H        17.8069147547        6.5675048197        5.3061976009
  H        16.8627316341        6.9547984290        6.7135293814
  C        18.2783670239        5.3746344706        7.0299923358
  H         4.6346380488        5.8193729818        1.0555412648
  H         4.7783564714        6.4224706711        2.6165300231
  C         5.5657668193        7.8807085484        1.2325452755
  C        12.9257018552       -0.6189710707       -2.6324043428
  S         5.7772948393        6.0732722532       21.1306032732
  C         6.4655056801        9.0679259552       21.0858935423
  H        17.8448672375        5.1505628282        7.9576828661
  H        18.5054315262        4.4215876599        6.5957430981
  C        19.6472065902        6.0373343658        7.1274657016
  H         6.0183368758        7.9008093858        0.2325533349
  H         6.2597195454        8.4428406180        1.9453447761
  C         4.2708326288        8.6961482926        1.0832769218
  H        12.5580987879       -1.6065305996       -2.6879323071
  C        13.4116484433       -0.2776542658       -3.8479191020
  H         5.8293066075        8.8001759859       21.9054503138
  H         6.1612865012       10.1239428214       20.8606188213
  C         7.8335296336        8.9943507738       21.5908256296
  H        20.1219641223        5.8067463400        8.0616712695
  H        19.5146570082        7.1253175790        6.9760531692
  C        20.5229514089        5.4374657708        6.0834554070
  H         4.4562443381        9.4889118381        0.4109890850
  H         3.6171962548        7.9699083042        0.6627309625
  C         3.7237266136        9.2928655259        2.4312620065
  S        14.1281727687        1.2362867526       -4.2592541430
  C        13.4936073136       -1.3123867550       -4.8931811013
  H         8.6113342256        9.0574791924       20.7805184614
  H         7.9838353243        8.1351638076       22.2145513380
  H         7.9335947912        9.8713064262       22.2613010218
  H        20.1265762514        5.4567339243        5.0994903028
  H        21.5233134560        5.7944487420        5.9995355315
  H        20.6088601463        4.3222497971        6.2911818306
  H         3.0176446717       10.0577937078        2.2775017189
  H         3.3249781993        8.4511635801        3.1008282020
  H         4.4292984915        9.8873049740        2.9810463101
  C        14.4160458127        0.5639782160       -5.8848755919
  N        14.1500737800       -0.7641080731       -5.9723924247
  O        13.2019864939       -2.4836779829       -4.6769885403
  S        15.3408305464        1.3639980873       -7.0825574451
  C        14.3086343727       -1.4211413945       -7.2041294446
  H        14.1992039543       -2.4782337325       -6.9716053818
  H        15.2873284173       -1.3359476336       -7.5268957667
  C        13.2339542729       -0.9633891458       -8.1826433931
  H        12.2786704448       -1.2308273841       -7.7224832683
  H        13.1705722014       -1.4462865321       -9.1442066587
  H        13.3088502170        0.1743288020       -8.3003266619
