352
 i =    42100, time =    21050.000, E =       100.9244062143
  H        10.4460549712        4.6480500604       32.0852822192
  C        10.2426055951        5.7039354136       32.0429631402
  H         9.3217244206        5.9066376007       31.6968343098
  C        11.4105527261        6.3548256632       31.2045364078
  C        10.5935802800        6.1767673739       33.4094660595
  C        11.4785585530        5.7634209076       29.8454019907
  H        11.3079753133        7.4613302006       31.0928484473
  H        12.3965647815        6.2131640509       31.7109816426
  H        11.5302519397        6.7820213057       33.4193129971
  H         9.7151875342        6.7353054153       33.8148838785
  H        10.8771138684        5.2725412272       33.9882433302
  C        10.3237301679        5.9652854084       28.8633570440
  H        11.6291748862        4.7236368245       29.9184364072
  H        12.4299792676        6.0974277959       29.3782091744
  C        10.7240352093        5.5176771988       27.4397130746
  H         9.4567943796        5.3154277239       29.2486715339
  H         9.9261015391        6.9366508468       28.8880300666
  C         9.5509434187        4.8748279247       26.6385512394
  H        11.4154374660        4.6950589142       27.5697399317
  H        11.3277905260        6.2641370065       26.8837193571
  C         8.3988055946        5.8173778771       26.2315449529
  H         9.9802584740        4.2199693848       25.7920296715
  H         9.1409489056        4.0490011628       27.2725956790
  C         7.1931590300        5.1773529239       25.4426014798
  H         8.1276970584        6.4575300878       27.0492381781
  H         8.8791017317        6.5356513477       25.5222217702
  C         6.8981117646        3.8771949579       26.1153684992
  C         7.6110574814        4.5107192880       24.1480916010
  C         5.9667017892        6.1146097980       25.1790460785
  C         7.1051181912        2.7947197640       25.2656922296
  C         6.4745656554        3.4523090594       27.4036839992
  C         7.5558864280        3.1507967278       24.0138696103
  C         8.1380765713        5.0797209045       22.9732499492
  H         6.2015919646        6.8653616853       24.4388961663
  H         5.8934013789        6.7466521001       26.1327643084
  C         4.6689443353        5.4736757252       24.7007558431
  S         6.6546257114        1.2891633078       25.9883049020
  C         6.2639795580        2.1142486933       27.4151840947
  H         6.2988575228        4.1514505510       28.1959226174
  C         7.9711493342        2.4691650896       22.9396531027
  H         8.2953242914        6.1358515181       22.9716481533
  C         8.4679313117        4.3894710670       21.8367310148
  H         4.6716543325        5.2979185129       23.6152915393
  H         4.6236913427        4.4766980948       25.1820766126
  C         3.3673693845        6.3017688826       24.8547622680
  C         5.8259768847        1.3497711602       28.6810411193
  C         8.4371689477        3.0074303071       21.7533480375
  H         7.9751723119        1.4072501945       22.9783600111
  C         8.9606008066        4.7904107570       20.6001792787
  H         2.5781887197        5.8955665105       24.2634715603
  H         3.5107981054        7.2298918718       24.3782518713
  C         2.9667800139        6.3542609119       26.4061813199
  C         5.8207758231       -0.0965474599       28.9048320881
  C         5.4271169437        2.1636007746       29.8668967833
  C         8.9118406281        2.3456389517       20.4285960463
  C         9.2206489350        3.7149787648       19.7766117827
  S         9.2944366479        6.2725268552       19.7695528020
  H         2.3658926967        7.2456941329       26.4478641220
  H         3.8219089751        6.6021407916       27.0156678238
  C         2.2394716272        5.0570612554       26.8331271912
  N         6.1138347681       -1.0798321774       27.9192791766
  C         5.6236402024       -0.7030356300       30.1586593428
  C         5.1305811586        1.5364602510       31.0573230729
  H         5.2207423523        3.1900259871       29.7320105741
  C         7.7646860364        1.5578041983       19.7662307283
  C        10.1447366278        1.4490725332       20.6557990700
  C         9.5896454970        4.0974044934       18.4905789476
  C         9.5947884083        5.4520086023       18.3640988225
  H         1.5289736860        4.7905022749       26.0523492844
  H         2.9977059230        4.3284920642       26.9318874832
  C         1.4195109131        5.1319846516       28.1563304655
  S         6.2643906802       -2.5330416301       28.6698919640
  N         5.8306632083       -2.1004042086       30.1765707897
  C         5.2939327210        0.0836710777       31.2400894780
  H         4.8693911566        2.0895832701       31.9390076836
  H         7.4029443696        0.8797868899       20.4858851106
  H         8.0530276053        0.9419396953       18.9662180468
  C         6.5689753234        2.3986195943       19.2854820303
  H        10.3648431151        0.8396654654       19.8023473731
  H         9.9505296867        0.7421321365       21.4571639648
  C        11.3497832141        2.3429107001       21.0712353220
  H        10.0202860135        3.2857379199       17.8689816215
  C        10.0115861603        6.2036055174       17.1297554713
  H         0.9356011358        4.1476788215       28.3082890688
  H         0.7305301961        5.9070846669       28.0578214376
  C         2.2783100955        5.3685999971       29.4122619805
  C         5.0392163220       -0.4691187514       32.5101396362
  H         6.9124912190        3.2124434310       18.6483274945
  H         6.1362957586        2.8736505308       20.1668538566
  C         5.5684749632        1.5944194835       18.4737803107
  H        11.0406053707        3.0331345985       21.9093799781
  H        11.7685543685        3.0070044044       20.2491116161
  C        12.4779649076        1.3725976646       21.4695086692
  C         9.9214168499        7.6444749591       16.9572637702
  C        10.3073044075        5.4739960234       15.8498415685
  H         2.8876662491        4.4622752780       29.7015547560
  H         2.9991332969        6.1658136220       29.1794651551
  C         1.3862108079        5.6995975761       30.5738649813
  H         5.1165213013       -1.5323958868       32.5448576003
  C         4.7299237884       -0.0826606647       33.7970255056
  H         5.4913597197        0.5144447448       18.6428639874
  H         5.8151433987        1.8195661426       17.4897894988
  C         4.1384677922        2.1848128768       18.5577396091
  H        12.2536182851        0.6652533081       22.2561625669
  H        12.7547986607        0.8631665670       20.5111036962
  C        13.6464956039        2.2039045507       21.8908224495
  N         9.6118918481        8.5639435998       18.0019017209
  C        10.1582879485        8.2986526955       15.7606883905
  C        10.4134874181        6.1457722090       14.6135673802
  H        10.4318866222        4.3971108211       15.9453429587
  H         1.9491400467        5.5962065088       31.4290077289
  H         0.8734807809        6.6975020434       30.4582096355
  H         0.6953750346        4.8799957259       30.5400987180
  S         4.4125208129        1.4511357357       34.4390454808
  C         4.7338889158       -1.1555766612       34.8403729416
  H         4.1127886933        2.9203408746       19.4192831855
  H         3.9070307870        2.6816492053       17.6418794988
  C         3.0053359654        1.1494541537       18.7860330455
  H        13.3659499110        2.9357674497       22.7414409859
  H        13.9841723398        2.8841398893       21.0891438276
  C        14.9732270811        1.4584602161       22.2315506148
  S         9.6941383763       10.0919948065       17.4088975807
  N        10.0477417689        9.7361810589       15.8724381441
  C        10.4414076840        7.6151059372       14.5727234144
  H        10.4353728700        5.5702734963       13.6991304147
  C         4.1795623488        0.7291469214       36.0147135496
  N         4.3783847715       -0.6384839706       36.0111332515
  O         5.0068740628       -2.3610030309       34.6154362225
  H         2.2146110393        1.7889491378       19.0817675777
  H         3.3121305275        0.5342780463       19.6763237095
  C         2.7468012922        0.1264638272       17.5759415949
  H        14.7268173034        0.4443068838       22.5999706600
  H        15.5265974582        1.3592303046       21.2973749586
  C        15.7762373842        2.3062390769       23.2535872947
  C        10.6343148273        8.3800085964       13.3954065725
  S         4.1017151213        1.6657254316       37.5172835785
  C         4.5347993058       -1.3879336498       37.3308483490
  H         2.1939085169        0.4488967547       16.7196151392
  H         3.7914126594       -0.0686554359       17.1927186004
  C         2.2325683656       -1.2600158024       17.9406411488
  H        15.1062422059        2.7412295701       23.9614627935
  H        16.2231371753        3.1732141310       22.7546465379
  C        16.9546768494        1.5441409285       23.8892488456
  H        10.3215387300        9.4196555068       13.4006747034
  C        11.2125875812        7.9487438983       12.1913233554
  H         3.8564142224       -0.8963007644       38.1038254422
  H         4.2393918298       -2.4614156260       37.1510413208
  C         6.0006203138       -1.2500274420       37.7784511866
  H         1.1831469593       -1.2518443430       18.2945868920
  H         2.8005901086       -1.6244017611       18.7856307182
  C         2.3073526908       -2.0652655511       16.7045884908
  H        17.3330106599        2.1453054412       24.6655991918
  H        16.6521458801        0.6265781844       24.4043161395
  C        17.9435640206        1.2030965970       22.8129889936
  S        11.8773763331        6.3903371561       11.6476571629
  C        11.3382786062        9.0150338997       11.1884376603
  H         6.2464694733       -0.1967860867       37.9389646470
  H         6.2979468539       -1.7725997014       38.7190886426
  H         6.7182438079       -1.6424573952       37.0530503740
  H         1.8819969583       -3.0267435567       16.9001065493
  H         3.3811171483       -2.0682939058       16.3424579181
  H         1.7192375572       -1.5253573842       15.9856473986
  H        18.9119072948        0.9632450554       23.1588415210
  H        18.0291740185        2.0477559644       22.1385656808
  H        17.6143601947        0.3013354598       22.2002123079
  C        12.1166666715        7.1380113255       10.1540084276
  N        11.9710374820        8.4616934909       10.1253677702
  O        10.9494444149       10.1187617360       11.3661421696
  S        12.8735502747        6.3555813520        8.7990481290
  C        12.1217342760        9.2463936876        8.9664620838
  H        12.3983935116       10.2387767706        9.2625490807
  H        12.9470000486        8.8787294478        8.3862556500
  C        10.8278307665        9.4171104122        8.1218731189
  H         9.9083362124        9.4567819004        8.7972214140
  H        10.8353441248       10.3443290955        7.5781553974
  H        10.7433741040        8.6763764543        7.3702874725
  H         4.9608637758        1.6299639744       12.3573674591
  C         4.2375330627        2.4142019366       12.3910668946
  H         4.9424094740        3.2624104283       12.3584024168
  C         3.2248418834        2.4107582809       11.2552430371
  C         3.3664170106        2.3297858858       13.7310994557
  C         3.6480865543        2.6789470126        9.7953901434
  H         2.3774385214        2.9954624570       11.5426069570
  H         2.7726009941        1.4717834316       11.1583918002
  H         2.6432840292        3.1555293680       14.0101712108
  H         3.9062171550        2.2325200648       14.6162403532
  H         2.7590911287        1.4334738885       13.7541405077
  C         4.3902240821        1.5126422824        9.2247308343
  H         2.7056746559        2.7177547650        9.1778526602
  H         4.0336098765        3.6554877515        9.6725947737
  C         5.1832666032        1.7605649831        8.0084838756
  H         3.5429468843        0.8943631182        9.0329421941
  H         5.0850793604        1.0949369426        9.9984257776
  C         6.3952255233        2.7312020713        8.1513985290
  H         4.4678714876        2.0190265533        7.1942238700
  H         5.5396910076        0.7495719147        7.6408955693
  C         7.5757192978        2.0488518786        8.8814062859
  H         6.7635588750        2.9957195792        7.0976898708
  H         6.1078116796        3.6768286812        8.7549057547
  C         8.9341250140        2.7946302364        8.9183078493
  H         7.7683118751        1.0520624632        8.3454139019
  H         7.2778513165        1.8555037202        9.8808148755
  C         8.7448316045        4.1000643035        9.6397090693
  C         9.3882543436        3.4986691477        7.6832111696
  C        10.1023535773        2.0118097461        9.5600445084
  C         8.9957206971        5.2496601576        8.8864082111
  C         8.3196762389        4.4339154236       10.9763990997
  C         9.4777245597        4.8589798358        7.6491055573
  C         9.8833410864        2.8434259138        6.5304301884
  H         9.6983669253        1.6429571575       10.5053146943
  H        10.3386787907        1.2271323805        8.8837638198
  C        11.4353355395        2.7927849330        9.8008853692
  S         8.6740826277        6.6221592627        9.7821849876
  C         8.1760865162        5.7608349922       11.1973688576
  H         8.0566533117        3.7198570219       11.6597985922
  C         9.9460695509        5.4574306441        6.5026311190
  H         9.7519852543        1.7786557875        6.5330432019
  C        10.2446506216        3.4530884577        5.3503105359
  H        11.2658423814        3.8286706817       10.1007543894
  H        12.0254617627        2.9788065657        8.9691067120
  C        12.3843304841        2.2529637050       10.8189459315
  C         7.6552799793        6.4266599952       12.4428001853
  C        10.2923971778        4.8356051361        5.2900727109
  H        10.0459182161        6.5443158547        6.6294396641
  C        10.6249796201        2.9792387550        4.0966107073
  H        13.3555498061        2.7844097193       10.6873583514
  H        12.5591293588        1.2265101406       10.8282648880
  C        11.6907875110        2.6391411072       12.2104486548
  C         7.6235226284        7.8148961103       12.6763652109
  C         7.1815780450        5.6194485614       13.5655085100
  C        10.6954568674        5.4034555633        4.0149294323
  C        10.8370323909        4.0486731906        3.3070887668
  S        10.8866140600        1.4133468239        3.3999404781
  H        11.7386859069        3.6939723919       12.4015275638
  H        10.6542770076        2.4609923457       12.1027709361
  C        12.1579028197        1.7813848273       13.3162506737
  N         7.9108028885        8.7683121761       11.7232948671
  C         7.4015753088        8.4012788189       13.8998686856
  C         6.8682538805        6.1593175787       14.7750628014
  H         7.0504271376        4.5476815681       13.5340465400
  C        11.9487709721        6.1562513261        4.2760273196
  C         9.5790622600        6.3019100057        3.2597583985
  C        11.2087450537        3.6350151512        2.0247677722
  C        11.3117077812        2.2893995124        1.9176893743
  H        13.1239324017        1.3210233684       13.1544360648
  H        11.4953785355        0.8802980141       13.3825289360
  C        12.1131832566        2.5218203718       14.6353525640
  S         7.8843581034       10.2364156011       12.3153066385
  N         7.4121538532        9.7715441389       13.8751701339
  C         6.9212672399        7.6259427541       14.9946663792
  H         6.5543385682        5.4920932996       15.5505346088
  H        11.7075001242        7.1526370705        4.7069838004
  H        12.3690117808        6.3213123592        3.2487085508
  C        13.1415809935        5.2991083536        4.8610738961
  H         9.2043093394        7.0197582522        3.9572017913
  H        10.0784044723        6.8557113937        2.4202226190
  C         8.3620269040        5.5436472083        2.6846896713
  H        11.5448995158        4.3698265537        1.2974212570
  C        11.5872835158        1.5459027772        0.5974435969
  H        12.5525577744        3.4832243790       14.4962917345
  H        11.0590096370        2.6896466876       14.6911059338
  C        12.7581459674        1.7946839712       15.8121725853
  C         6.6470829663        8.2161491224       16.2647362748
  H        12.8019307464        4.5921357826        5.6577744549
  H        13.4688785681        4.6897655040        4.0214781482
  C        14.3314687886        6.0738351253        5.4119300367
  H         8.0772619570        4.6623808746        3.2671355371
  H         8.8010226350        5.1121916654        1.7771855096
  C         7.2650899315        6.4724474169        2.3295206002
  C        11.7427476401        0.1467742381        0.4382425944
  C        11.8975048485        2.3537534997       -0.6058862302
  H        13.6412403178        1.2545188522       15.4430681799
  H        12.1326049749        1.0263777899       16.2121927917
  C        13.1056840279        2.7978910570       16.9542005354
  H         6.8104341381        9.1820504919       16.2986675503
  C         6.3556192520        7.7207567278       17.4951854742
  H        14.0169190328        6.6148669741        6.3127000469
  H        14.5718430087        6.6758450147        4.6313711140
  C        15.4852359663        5.1508219720        5.6914193973
  H         6.8746053206        7.0436322078        3.1746363926
  H         7.6335104119        7.1770421173        1.6061926977
  C         6.1536089644        5.6826242313        1.6941490235
  N        11.4896691031       -0.7546084022        1.4390606756
  C        12.0427685110       -0.4957562126       -0.7030672213
  C        12.1612790357        1.6736343366       -1.8671593202
  H        11.7621170473        3.4069697048       -0.6117885498
  H        12.5599301123        3.7106703535       16.7003641853
  H        14.1278148406        2.9794079687       16.9073408012
  H        12.8590050838        2.5297351484       18.0112591347
  S         6.2122265420        6.1594159273       18.0730029783
  C         6.1921403947        8.7433082135       18.6065859022
  H        15.0798342954        4.1723760524        5.9525069307
  H        16.1496437244        5.0330825519        4.8172049320
  C        16.3642105147        5.6786472581        6.8745227253
  H         5.7659450731        5.2225952453        2.5657898853
  H         6.5005673399        4.9722285324        0.9549126258
  C         5.2067570632        6.6397787337        0.9654280450
  S        11.3992355940       -2.2711350024        0.8186811050
  N        12.0688760517       -1.8946992376       -0.5738543703
  C        12.3239633039        0.2049172662       -1.9146452391
  H        12.3850111931        2.3139920651       -2.7358319341
  C         5.9654193788        6.8134799145       19.7627366264
  N         5.8616892548        8.1305192761       19.7664029438
  O         6.2871882218        9.9648529947       18.4614537576
  H        16.6780742126        6.6804384469        6.6803024782
  H        15.8290500962        5.6213377273        7.7950161861
  C        17.5675966063        4.9046368948        7.0970977624
  H         5.7212974757        7.3407809293        0.3515781037
  H         4.6867332950        6.0338987235        0.2684404614
  C         4.3077723100        7.3632232654        1.9491578016
  C        12.6424667253       -0.5310993534       -3.1005929470
  S         5.4511711702        5.8337363568       21.1519624857
  C         5.8365295296        8.8824720829       21.0219019018
  H        17.5419463793        4.4170753268        8.0751893440
  H        17.6505422957        4.1423358159        6.3942156680
  C        18.7672175010        5.8210154441        7.0945106369
  H         4.5655172575        7.1058199565        2.9832307634
  H         3.2503809339        7.1970662495        1.8098249824
  C         4.4380042893        8.9459627834        1.8356927360
  H        12.2778883308       -1.5016320774       -3.0963338146
  C        13.3509402064       -0.1312784310       -4.1971693951
  H         5.3651143406        8.3861422167       21.8655814053
  H         5.2014924275        9.7471487625       20.9212229718
  C         7.2616195885        9.1530546762       21.5815969544
  H        19.5624149205        5.2812858943        7.6347029717
  H        18.5589540837        6.7048360467        7.6882626953
  C        19.1326010108        6.2339673794        5.6574505704
  H         4.0630366903        9.3607151627        2.8230556055
  H         5.4737694287        9.1666505801        1.6908211634
  C         3.6865239052        9.4686313318        0.6525669406
  S        14.0597676252        1.3146916138       -4.4740765204
  C        13.4166553331       -1.1263771386       -5.2986794713
  H         8.0145983733        8.8830388641       20.7889447354
  H         7.5263643774        8.4716277521       22.3765784592
  H         7.5246940613       10.1766567920       21.8662423305
  H        19.0469963497        5.2979902248        5.0384111598
  H        18.3628471874        6.8984535644        5.3627669899
  H        20.1592502428        6.6257192206        5.4426243286
  H         3.8287727351       10.4926075555        0.3969346422
  H         4.0851522982        8.8674965855       -0.1438989005
  H         2.6156295018        9.3309443378        0.6689086682
  C        14.4266356642        0.6512012245       -6.1577026859
  N        14.0355828812       -0.5895376495       -6.3806199767
  O        12.9940183291       -2.2690350623       -5.1835922781
  S        15.1892101882        1.5284861869       -7.5994286132
  C        14.0695854583       -1.3306240610       -7.6387396193
  H        14.1922042808       -2.4198795200       -7.4928899821
  H        14.9605150981       -1.0248706487       -8.1424431063
  C        12.7896058326       -1.1155271571       -8.4206006279
  H        11.9928034961       -0.6602613085       -7.8211820206
  H        12.4224839899       -2.0378211092       -8.9358865122
  H        13.0614334225       -0.4550975671       -9.2358636213
