352
 i =    20500, time =    10250.000, E =        98.1791542367
  H        10.7404918444        4.5112236059       31.8454480663
  C        10.8445671932        5.5716267323       31.9125666377
  H         9.8646168654        5.9379482879       31.6051899617
  C        11.9888605469        6.1622123452       31.1234414761
  C        10.9729529871        5.7897302165       33.3746365526
  C        12.2703517518        5.6265791352       29.7334439865
  H        11.7430128879        7.2202127593       31.0093910659
  H        12.9976178577        6.1604787764       31.5931709426
  H        10.8174393814        6.8146596260       33.5800668103
  H        10.1508168071        5.3083949060       34.0157482029
  H        11.9706152842        5.4609962211       33.6648358823
  C        10.9922985213        5.5836314562       28.8492147993
  H        12.9009025149        4.7549123723       29.7699380417
  H        12.8632269272        6.4441826437       29.3401621495
  C        11.1849969255        5.5647471248       27.3119646153
  H        10.5242884352        4.6277306852       29.1967937152
  H        10.2663835939        6.3532160946       29.0423162176
  C        10.0098668504        4.8053028713       26.5988435861
  H        12.1136978105        4.9994057485       27.0405727681
  H        11.1877823503        6.5266843722       26.8794106786
  C         8.7910878491        5.7004521401       26.3815548672
  H        10.4118654659        4.3669495809       25.5818475484
  H         9.7061924766        3.9015428980       27.0276772980
  C         7.4988413479        4.9956716084       25.7124591825
  H         8.5604857181        6.1867636780       27.2983385837
  H         9.0214823201        6.4915088294       25.7424214084
  C         7.1019556461        3.6813649862       26.3240814049
  C         7.9377459918        4.2660210394       24.3973468922
  C         6.2664402374        5.8630420037       25.4393765801
  C         7.2922295552        2.5915352223       25.5246424678
  C         6.6410509238        3.3032335722       27.6362391229
  C         7.8606945452        2.9111080770       24.2980640046
  C         8.3370433469        4.8953043904       23.2354292511
  H         6.7121862372        6.7384172802       24.8726726838
  H         5.8794481231        6.2546699458       26.3586897749
  C         5.0419528130        5.1539163008       24.8255972816
  S         6.6659046937        1.1502039165       26.2787109896
  C         6.3323740657        1.9815263141       27.6951907137
  H         6.6395592499        3.9709918400       28.4465234826
  C         8.1254092110        2.2690653676       23.0949815792
  H         8.4950513640        5.9498183452       23.3069773453
  C         8.5678412516        4.2990239753       22.0140782133
  H         5.1025952553        4.5941545927       23.8864128133
  H         4.6811959884        4.3630327597       25.4524059238
  C         3.8943461041        6.1048643128       24.5938098264
  C         5.8459007301        1.3244101026       28.8559404098
  C         8.4663891223        2.9376628750       21.9202905803
  H         8.0170178209        1.2701508870       22.9220000360
  C         9.0846673504        4.7215152848       20.7759850407
  H         3.2336301845        5.7469289703       23.7339198673
  H         4.2661668597        7.0596168823       24.1932309988
  C         2.9750177078        6.3272499482       25.7610590482
  C         5.8323267161       -0.0603139541       29.1353811482
  C         5.3729110951        2.1734623710       29.9777248643
  C         8.8758712423        2.2651204113       20.6335354660
  C         9.1952073536        3.6043645149       20.0041610399
  S         9.5182945302        6.2805378901       20.1825583358
  H         2.3543772492        7.1943815292       25.5216223357
  H         3.6616088624        6.5108284519       26.5674924111
  C         1.9193974258        5.1794156404       26.1071152796
  N         6.1051935877       -1.0030048431       28.1877631906
  C         5.5650353063       -0.5990960147       30.3743254033
  C         5.1320821097        1.6178554213       31.2389747697
  H         5.1919164291        3.2204389598       29.8373512721
  C         7.6830707173        1.5703482285       20.0474236912
  C        10.1169688763        1.4233147690       20.8253295488
  C         9.6076109715        4.0423098369       18.7331253383
  C         9.8102054068        5.3784407156       18.7026151012
  H         1.1634043558        5.0967423459       25.3861299658
  H         2.5691959158        4.2429238038       26.2701712732
  C         1.1770058394        5.4609798349       27.4050332707
  S         6.0297203059       -2.4722103595       28.8310049664
  N         5.7821479851       -1.9892017650       30.3497087001
  C         5.2649207953        0.1821152717       31.4708885344
  H         4.7397257496        2.2106435985       31.9913489410
  H         7.2034277044        0.8676007526       20.7514765125
  H         8.0771499991        0.8925780777       19.2818730819
  C         6.5790969832        2.4171087427       19.3872926465
  H        10.3723161013        1.0623796991       19.8583577043
  H         9.9144946258        0.5651028709       21.3928200905
  C        11.3877401720        2.0849115397       21.2378631969
  H         9.5663192949        3.3808558202       17.9020821385
  C         9.9902685296        6.1405725586       17.4527015796
  H         0.6877321538        4.5306767070       27.6576471811
  H         0.2515635858        6.1251407380       27.3107389990
  C         2.1338295848        5.8940477732       28.5128691985
  C         4.9238462775       -0.4890737464       32.7035687237
  H         6.9266852854        3.0157623146       18.5396048958
  H         6.1180190218        3.1197818403       20.0632595715
  C         5.3497485736        1.5872401244       18.9337658897
  H        11.2528165153        2.4888479621       22.2093929122
  H        11.7431706815        2.8751320221       20.6819794002
  C        12.5272718061        1.0468082149       21.1855686994
  C         9.9976651180        7.5414492490       17.2196099932
  C        10.2223273187        5.3920780355       16.1481734353
  H         3.1059746718        5.4218335201       28.4597028429
  H         2.1809591213        7.0064140674       28.2799565562
  C         1.5476422729        5.6800757959       29.9481165808
  H         4.9131286806       -1.5555822249       32.7149028216
  C         4.6065286140       -0.0605757829       33.9828854385
  H         5.0190980030        0.9139806175       19.6726827647
  H         5.7213898281        1.0677718133       18.0471386922
  C         4.1394152382        2.4908334265       18.6431670991
  H        12.3926865202        0.4621053467       22.1024694508
  H        12.3081004819        0.4415413609       20.2481515572
  C        13.9340924893        1.6343009469       21.2143018574
  N         9.6771163530        8.4673450182       18.1738012928
  C        10.1886310635        8.1281780706       16.0158623932
  C        10.4670336933        6.0034575119       14.9438927518
  H        10.4932061921        4.3774900453       16.2314217941
  H         0.9976277784        4.7371274076       30.0966903658
  H         2.4243075901        5.6986579218       30.6114676580
  H         0.8907006680        6.4923806074       30.2087498828
  S         4.3333939183        1.5800854375       34.4824223348
  C         4.5751892489       -1.1021975478       35.0806327530
  H         4.2764647947        3.4507939821       19.1092584734
  H         4.0608335386        2.8307368369       17.6148570464
  C         2.7536716618        1.8293786068       19.0621764390
  H        13.9444107941        2.5020514033       20.5747358278
  H        14.6710159040        0.9000006686       20.9039892717
  C        14.3102007405        2.1807044328       22.6210018841
  S         9.5682773617        9.9348258705       17.4841553965
  N        10.1185549397        9.4781597553       16.0211833372
  C        10.5924253285        7.4578129753       14.8388308444
  H        10.7823983165        5.3832525819       14.1457660012
  C         4.0169209666        0.8175248915       36.1051169354
  N         4.0779409670       -0.5028463321       36.1946221747
  O         4.7786662014       -2.2808731133       34.9921263351
  H         2.0269484091        2.5673134442       18.8913265897
  H         2.6183113478        1.6060584607       20.1156088132
  C         2.3883214076        0.6767063289       18.1072333932
  H        13.6566747077        3.0792387397       22.7575968750
  H        14.1169737255        1.4748440018       23.4450453346
  C        15.7661616536        2.6798065119       22.5368266470
  C        10.9335081628        8.1747329101       13.6207521709
  S         3.5777638071        1.7870600220       37.6090663355
  C         3.9803313036       -1.1128954139       37.4824061041
  H         1.4684109575        0.9066921914       17.5956421836
  H         2.9235460881        0.6986079924       17.1752643567
  C         2.5209940799       -0.7330576356       18.6566888293
  H        15.8329794157        3.6834969893       22.9565407839
  H        16.2563850527        2.7053451492       21.4844522106
  C        16.6541209183        1.8524160666       23.3720838708
  H        10.5805628180        9.1782514456       13.6042030295
  C        11.5056465506        7.8099886759       12.3919215441
  H         3.1085336835       -0.7701942516       38.1046898638
  H         3.8132554588       -2.1596147647       37.3386179330
  C         5.3774201408       -1.1346765315       38.2467795986
  H         1.7876845760       -0.8429080918       19.5282059414
  H         3.5417175554       -0.8335200645       19.0132793171
  C         2.4179097760       -1.8298402416       17.6252724518
  H        16.5605305564        2.1192338582       24.4707039058
  H        16.4386242350        0.7826172731       23.2294321018
  C        18.1135089115        2.0560254501       22.9941354369
  S        12.1312159618        6.2578436961       11.9338865667
  C        11.6022207452        8.8480677570       11.3919733291
  H         5.2716540036       -0.6645122461       39.2470888605
  H         5.5602812988       -2.1850063993       38.3722735319
  H         6.2105547021       -0.7742167576       37.6359783453
  H         1.9392404438       -2.7397596808       17.9765997498
  H         3.4312062945       -2.0567282214       17.3661949367
  H         1.8358466387       -1.6160992892       16.7488457542
  H        18.7549051412        1.8702674729       23.8993513843
  H        18.2884583227        3.0530668339       22.5912367973
  H        18.3153582693        1.3238161823       22.1741502647
  C        12.6669152344        7.0552423339       10.4572509521
  N        12.3265796023        8.3323284767       10.3672340475
  O        10.9854020374        9.9301510859       11.3636442454
  S        13.4393234005        6.1652554315        9.0782070854
  C        12.5812009224        9.2009366953        9.2563058380
  H        12.6806331707       10.1917348218        9.5769015334
  H        13.4056856977        8.9403069615        8.6335568474
  C        11.3052079483        9.1842059194        8.3656007367
  H        10.3966003314        9.3710606388        8.8736903693
  H        11.3201640912        9.9461086333        7.5825643975
  H        11.1231781551        8.1912772143        8.0203095840
  H         4.1931473155        1.2694815625       12.8622998077
  C         3.8173024937        2.2932188554       12.9546751715
  H         4.7754627634        2.7884281056       12.9151959695
  C         2.9704565469        2.5241966308       11.6388728614
  C         3.0019506695        2.4617853539       14.2854212595
  C         3.6701895154        2.6185611559       10.3369452326
  H         2.4033070377        3.4848864599       11.7414581427
  H         2.2712285524        1.6993242352       11.5965737864
  H         2.2831433392        1.6330244359       14.4791287991
  H         2.5994826259        3.4575732858       14.3354762868
  H         3.7788158809        2.2839876540       15.0345069719
  C         4.6520169140        1.4901242453        9.8934254035
  H         2.8231855732        2.6840103173        9.6865633121
  H         4.1543434544        3.5993329339       10.4670771884
  C         5.3910245718        1.8321789662        8.5727140574
  H         4.0710755482        0.6779541042        9.6215646471
  H         5.3885158616        1.1479561848       10.6265446576
  C         6.6197063520        2.6850831192        8.7210506524
  H         4.6403728530        2.3334602766        7.9835853432
  H         5.6053509498        0.9514539578        8.0312176841
  C         7.8276253130        1.8621498553        9.3120729439
  H         6.8663811812        3.0399238025        7.7221436015
  H         6.3139152889        3.4760553635        9.4135087521
  C         9.1765018618        2.6745298752        9.4725816163
  H         7.9919165198        1.0477299521        8.5582574870
  H         7.5332583818        1.4594983158       10.2895062116
  C         8.8073808680        4.0565780341       10.0985437378
  C         9.6113628310        3.3795863203        8.1711195063
  C        10.3721021035        1.9191483793       10.1265904857
  C         9.1779098112        5.1423219419        9.3423952602
  C         8.2381740032        4.3834592708       11.3386233645
  C         9.6424568331        4.7438829286        8.0828144981
  C        10.0531590773        2.8178800261        7.0194932100
  H         9.9276153494        1.1298435995       10.8337620158
  H        10.9904930572        1.4464069402        9.3416721171
  C        11.1985489476        2.8323794668       11.1456302247
  S         8.8340123086        6.6444510733       10.1748396180
  C         8.1975248131        5.7341614718       11.5478104129
  H         7.9622231919        3.6336902174       12.0221764279
  C        10.0537025065        5.3885217066        6.9875150388
  H         9.8507739704        1.7890580834        6.9098003416
  C        10.4902710144        3.4282866869        5.8559274999
  H        10.5678194203        3.1764597047       12.0130400477
  H        11.5334516831        3.7191067100       10.5931984168
  C        12.3717795662        2.0435911353       11.7372778986
  C         7.6980621542        6.4251369906       12.7968786903
  C        10.4355212341        4.7703355642        5.7559161057
  H         9.9554287812        6.5196920428        6.8518091028
  C        10.8579910867        3.0704034016        4.6076432414
  H        13.2899618644        2.5787894039       11.5331725753
  H        12.6252927437        1.0486930475       11.3562993630
  C        12.1752687659        1.8582069171       13.2273392470
  C         7.7163598328        7.7839185210       13.0159017820
  C         7.1803134563        5.6595502256       13.9199528259
  C        10.7876993871        5.4781399026        4.5131595466
  C        11.0572116915        4.1763859371        3.7964791945
  S        11.1418552805        1.5485963086        3.9793789427
  H        11.8487013680        2.7427077450       13.6920197187
  H        11.3793874591        1.1193932688       13.2632489196
  C        13.4216581639        1.4623982051       13.9535723796
  N         7.9842307152        8.6671580836       12.0671975834
  C         7.4136587114        8.3927669741       14.2345787899
  C         6.9044870096        6.2185334915       15.1562919408
  H         7.0072280859        4.6135514214       13.6841256301
  C        12.0563368894        6.2874330225        4.7058042781
  C         9.5466615291        6.2846034396        3.9624078072
  C        11.4917658887        3.7233150459        2.5359138003
  C        11.5030627028        2.3504022736        2.4578083276
  H        14.1275671013        2.2610097403       14.2059837910
  H        13.9463558798        0.8256680168       13.3073205959
  C        13.0880031866        0.7675782973       15.2338895597
  S         7.9408418163       10.2397225263       12.6917910351
  N         7.4834552269        9.8099583348       14.2037230437
  C         7.0026026259        7.6667124661       15.3738755479
  H         6.6028011265        5.5663534750       15.9546907049
  H        11.8421663584        6.8303082489        5.5922841551
  H        12.1616279541        7.0391180105        3.9121623099
  C        13.4247235948        5.5454825354        4.8963954867
  H         9.4005790341        7.1626358061        4.5994256841
  H         9.9710667391        6.7792199739        3.1089610739
  C         8.2316325176        5.5135508924        3.7492431635
  H        11.6499380380        4.4388148624        1.7559646268
  C        11.8240501927        1.6170774874        1.1485627592
  H        12.7029426285       -0.2877420683       15.2032100052
  H        14.0413191772        0.6377033334       15.7746881817
  C        12.3607629970        1.6379670476       16.2399834260
  C         6.8055383812        8.3523527328       16.6140637840
  H        13.4265739472        5.0326297852        5.8167873397
  H        13.5125009902        4.7857954526        4.0274932175
  C        14.5851511428        6.5382266674        4.9102885110
  H         7.7683878277        5.2761053194        4.7008797193
  H         8.2888132102        4.5539214842        3.1758228222
  C         7.2193825859        6.3688929990        2.9075880697
  C        11.8363427323        0.2228827657        0.9959402115
  C        11.9574017197        2.4182801483       -0.1480591084
  H        11.4900482368        1.1927701496       16.6269033493
  H        12.1205645321        2.5821684946       15.8455175586
  C        13.0808659653        1.9186333382       17.5531120908
  H         6.8739406059        9.4057079882       16.6576122380
  C         6.5074514656        7.8431428605       17.8612099373
  H        14.2361307814        7.3019721497        5.6738588872
  H        14.7389580235        7.0016685710        3.9268323045
  C        15.9852555103        6.0217906926        5.4082476344
  H         7.1264222251        7.3352509347        3.3772519924
  H         7.5822250940        6.3507232168        1.9281961950
  C         5.8328555549        5.7587952499        2.8618690478
  N        11.6978850739       -0.6658604889        2.0154479988
  C        12.0562592647       -0.4277775701       -0.1783726020
  C        12.0740483675        1.7451391341       -1.3247351060
  H        11.8069467843        3.4634501369       -0.3366805896
  H        13.5161401022        0.9900067564       18.0145105757
  H        12.4167114348        2.3899909626       18.2111408485
  H        13.9084680351        2.5904283208       17.3696078117
  S         6.2019444759        6.1430043333       18.2652908328
  C         6.6577218557        8.7861052761       18.9755977383
  H        16.3760451643        5.2880128275        4.6852554109
  H        16.8282237765        6.7879931773        5.3515369970
  C        16.0411544522        5.5337025033        6.8564474932
  H         5.4034781213        5.7148887093        3.8534370507
  H         5.9892765524        4.7538622169        2.4974176590
  C         4.8324455860        6.5829557093        2.0456560561
  S        11.8573735407       -2.1658605442        1.4723089908
  N        12.0961154980       -1.7624109939       -0.0771969266
  C        12.3887815071        0.2808306985       -1.3753955441
  H        11.9894126948        2.2834039093       -2.2571656306
  C         6.1633279733        6.7284889575       19.9488436218
  N         6.3438781830        8.0737202869       20.0739468518
  O         6.8246257079       10.0347629047       18.8962637678
  H        15.8089340064        6.3548388352        7.6396477633
  H        15.1764965091        4.8444733805        6.9942087818
  C        17.2991400295        4.8056154788        7.3025595612
  H         4.7906796100        6.3615784905        0.9313757927
  H         3.8732907846        6.4003859392        2.4640768842
  C         4.9480014830        8.1558827205        2.0735364169
  C        12.6980577590       -0.5207779862       -2.5365660329
  S         5.6194426074        5.7137588112       21.2196105069
  C         6.2783480995        8.7864839228       21.3909050929
  H        17.0006680747        4.0721034967        7.9716068427
  H        17.7398135316        4.1227433508        6.5081521950
  C        18.4449770493        5.6593816085        7.8318340701
  H         5.9656576382        8.3223839776        1.7486554307
  H         4.9126087507        8.4030823859        3.1272912739
  C         3.7512376678        8.9220720940        1.3815363343
  H        12.3891141504       -1.6017575376       -2.5429684159
  C        13.0944373178       -0.1044522198       -3.7970830065
  H         5.7226347274        8.2878601392       22.1980630320
  H         5.7971794141        9.7459580749       21.2480141024
  C         7.7594855004        8.7835223222       21.8385473352
  H        18.9025398270        5.2118354669        8.6984408059
  H        18.0359813069        6.6181222042        8.2652188896
  C        19.6091057589        5.7991992664        6.8298092662
  H         3.5087949236        8.3330019354        0.4698565857
  H         2.8243007340        9.0036235923        2.0578655857
  C         4.2756722375       10.3189659510        1.0127689527
  S        13.5555000140        1.4690052421       -4.2341146517
  C        13.3613779592       -1.1318337159       -4.8809528904
  H         8.0501599550        7.7699594670       22.0280790251
  H         7.6334527078        9.3420160031       22.7919623563
  H         8.4755610782        9.3085518489       21.2581828995
  H        20.2118439474        4.8652330126        6.7950537982
  H        19.3186124623        5.9693466357        5.8157614137
  H        20.4906756780        6.4443558665        7.1304426157
  H         5.2094544795       10.4979962988        1.4566270203
  H         4.2665414982       10.5132728950       -0.0872079054
  H         3.6535990875       11.0996065459        1.4669799119
  C        13.9550926505        0.7953415357       -5.8608534143
  N        13.9134157714       -0.5550824582       -5.8900843804
  O        13.1462305627       -2.3334047990       -4.7606480558
  S        14.8674742283        1.6437527608       -7.0755131968
  C        14.3369121007       -1.2880931774       -7.0729933120
  H        14.5441413758       -2.3159438683       -6.7947782078
  H        15.3564556737       -0.9861742671       -7.4484892213
  C        13.1031911256       -1.2760792911       -8.0343877077
  H        13.0914077632       -0.3802115620       -8.5833955699
  H        12.1691639017       -1.4423411618       -7.4648896952
  H        13.0600589263       -2.1071603597       -8.6704410297
