352
 i =     2800, time =     1400.000, E =       201.5114408947
  H        12.0676115632        6.3467996377       32.0654733022
  C        11.6716231107        5.4122292513       32.0360612801
  H        12.5182536403        4.8326626061       31.6991686845
  C        10.5080115648        5.3804086223       31.0637411130
  C        11.3276547278        5.0192332446       33.5068659216
  C        10.9728553964        5.7260027111       29.6439353797
  H        10.0688982974        4.3435873446       31.1090877287
  H         9.6382067618        6.0457189276       31.3190310401
  H        12.2945829332        5.1117301064       34.2044178979
  H        10.4714572019        5.6230804935       33.8087550916
  H        11.0463177050        3.8876354604       33.5219356027
  C         9.9500877214        5.6200605105       28.6323681492
  H        11.6563442836        4.9057077356       29.5721661581
  H        11.6354601364        6.6069193205       29.7156325328
  C        10.5088534790        5.6571754352       27.1652988490
  H         9.3450264942        4.6253973809       28.6427649476
  H         9.2052710362        6.3995902999       28.7840397429
  C         9.6845521788        4.9795355570       26.1010713045
  H        11.4527079157        5.1354610552       27.3430686861
  H        10.8966619691        6.5874887937       27.0116258155
  C         8.3546969754        5.7455265128       26.0171515989
  H        10.1215817362        4.8971393552       25.0059857851
  H         9.4890752523        3.9048732768       26.3236626560
  C         7.2434976970        5.0947725966       25.2523408690
  H         7.9531422197        5.8903258077       27.0142669409
  H         8.5419592917        6.6799584766       25.5589817220
  C         6.7761473698        3.8015097776       26.0328495302
  C         7.6052287762        4.4406469530       24.0021713585
  C         6.1198825871        6.1645002230       24.9942120680
  C         6.9727769771        2.7125378016       25.1841061374
  C         6.3789384196        3.4513867367       27.2527886135
  C         7.3989609332        3.0777289176       23.9279979182
  C         8.0161298971        4.9941661695       22.7740583981
  H         6.1308367125        7.0290987714       24.3307758662
  H         5.9144705299        6.7446300430       25.9031360275
  C         4.6962444055        5.4776497853       24.7634694727
  S         6.4357302627        1.2467380185       25.9023131638
  C         6.2226139514        2.1164341296       27.4017247242
  H         6.5727344425        4.1814845443       28.0665518446
  C         7.7545225870        2.4247464834       22.7691801840
  H         8.2504995286        6.1208776960       22.7198399721
  C         8.3009019543        4.3725983553       21.5971183962
  H         4.7256541620        4.8565469944       23.8889093198
  H         4.4114985026        4.9449999604       25.6324997367
  C         3.5010454351        6.3175553952       24.5845982482
  C         5.9457787487        1.4244887108       28.7410064668
  C         8.2579607248        3.0099573428       21.5926834228
  H         7.7656307505        1.3754455349       22.7980490240
  C         8.8241911283        4.6813161227       20.3724927801
  H         2.9929636640        5.9181765562       23.7870381072
  H         3.8688091903        7.2082330683       24.1607280409
  C         2.8355739869        6.6305843131       25.8773759529
  C         5.9543778662       -0.0095697075       28.9008382674
  C         5.2357467291        2.1403499765       29.8043656947
  C         8.7594330752        2.1981337689       20.3878452942
  C         9.1433167314        3.5708735715       19.6246318220
  S         9.1323738064        6.1831466580       19.6102643075
  H         2.2893018145        7.5318459394       26.1008999255
  H         3.6348548327        6.5898800471       26.6022022356
  C         1.8062962001        5.4875549083       26.1802419297
  N         6.3423147686       -0.8546329674       27.8910543547
  C         5.7191523108       -0.5835438904       30.0818371782
  C         4.8873734913        1.4989117038       30.9684701111
  H         4.6733762577        3.1128363981       29.7443824358
  C         7.7087509716        1.3267503528       19.7680071843
  C        10.1068312874        1.3885270183       20.7906132001
  C         9.5219129089        3.9501261450       18.3153947834
  C         9.5651105848        5.3321893342       18.1676678532
  H         1.3217890252        5.1849012267       25.1980973843
  H         2.5840223109        4.6761426339       26.2581419133
  C         0.8810366218        5.7665630316       27.2531704776
  S         6.2103658974       -2.4206860900       28.4429877804
  N         5.7329396016       -1.9810411338       29.9744551067
  C         5.1647334125        0.0705827842       31.2126044518
  H         4.1236001187        2.0661305675       31.5821466856
  H         7.2290448724        0.6836324570       20.4525069151
  H         8.2254120917        0.6115150558       19.1209365308
  C         6.5781152661        2.1192849938       19.0448878957
  H        10.3545099177        0.8485869713       19.8752637832
  H         9.9929880995        0.6553577314       21.6420876111
  C        11.1802066401        2.3638012219       21.2866693496
  H         9.5390778658        3.1898502422       17.5873771361
  C         9.8932555040        6.0549082465       16.9283652241
  H         0.2444201865        4.8979958880       27.2817693806
  H         0.2694271071        6.7307426035       27.0935351479
  C         1.5210046196        5.7584627020       28.6251263546
  C         4.9084331741       -0.7773065450       32.3608001948
  H         6.8369866172        2.7201903086       18.2316753017
  H         6.1603159308        2.7710976464       19.8251418780
  C         5.3859143908        1.2798410859       18.5094437721
  H        10.9112617079        3.2265710578       22.0100668252
  H        11.6044115239        2.9814660439       20.5154928189
  C        12.4040657597        1.6221224199       21.6521135651
  C        10.0462188666        7.4228210782       16.6671607836
  C        10.0699857923        5.2777052105       15.6775325048
  H         1.8912522619        4.7517419686       28.8046716854
  H         2.3320376900        6.4506376061       28.7267987397
  C         0.5286195416        5.8934958011       29.7608754929
  H         4.9900628823       -1.9378997789       32.2571679429
  C         4.7623369095       -0.3280626817       33.6595287168
  H         4.8921223654        0.8166355267       19.4467809559
  H         5.6911753366        0.3738267123       18.0353779441
  C         4.2074869195        2.1911758375       18.1312733619
  H        12.2670168737        0.8245489816       22.3660586841
  H        12.5408008828        1.0519304147       20.7728603644
  C        13.5316385620        2.5262772108       22.0497317915
  N         9.8289259199        8.3288266557       17.7411232147
  C        10.2716434911        8.0576829046       15.5384874330
  C        10.4062670266        5.9206591044       14.4671858494
  H         9.9502623162        4.2212451016       15.7419073870
  H        -0.5252754163        5.9278987081       29.3767256298
  H         0.6475253739        4.9344379314       30.2663035185
  H         0.6761761638        6.7296050870       30.4080633291
  S         4.5763161957        1.3194091377       34.1516412964
  C         4.6754293243       -1.3812108215       34.7311884127
  H         4.1785306318        3.1487395198       18.6131557548
  H         4.2997474436        2.3372832983       17.0556425450
  C         2.9416771531        1.4799800687       18.3294533343
  H        13.3047646697        2.8214557584       23.0309983403
  H        13.6030303781        3.4399447504       21.4377282772
  C        14.8013862333        1.8622612414       22.3556645879
  S         9.9324874612        9.8308009247       17.2532121695
  N        10.3559491977        9.5312472341       15.6725694024
  C        10.5051146923        7.4318566400       14.3174723830
  H        10.4670717065        5.2285591628       13.6889034116
  C         4.2325794614        0.5836992705       35.7662056361
  N         4.4169005594       -0.7527544105       35.8755230884
  O         4.8762832714       -2.5608217184       34.5555325648
  H         2.1413887030        2.1022760649       17.9442150607
  H         2.6450023310        1.3902975954       19.3488076238
  C         2.7072829092        0.2234150985       17.4427013507
  H        14.6634013683        0.8582847125       22.6887758702
  H        15.1892184904        1.8054093230       21.3623659099
  C        15.7285777933        2.5963268026       23.2261721307
  C        10.8712625242        8.0604300046       13.2029308275
  S         3.8881921823        1.4155096120       37.2698810445
  C         4.4726836504       -1.4526064063       37.2213646594
  H         2.1623121859        0.2816172350       16.5268146271
  H         3.6530761111       -0.0391917805       17.3278311978
  C         1.9552198373       -0.8740360284       18.0595421167
  H        15.4005555641        2.4719557435       24.2718648225
  H        15.7813319620        3.6737922594       22.9963702727
  C        17.0944795116        1.9509797559       23.2293713156
  H        10.4199763789        9.0491021764       13.2084328614
  C        11.4722032506        7.6680522038       11.9990757597
  H         4.1555672047       -0.8148549695       38.1125005745
  H         3.8250170176       -2.3925121103       37.0987234631
  C         5.8172813613       -1.8334675548       37.7256359083
  H         0.9809258780       -0.5353056935       18.4192893613
  H         2.5452925922       -1.1443927148       18.8418004420
  C         1.8345980076       -2.1326201847       17.2472928940
  H        17.7864919436        2.3539362494       23.9777064788
  H        16.9008781555        0.9412471238       23.3190444750
  C        17.8930811855        2.0620453946       21.9884746644
  S        12.1930386719        6.1920065367       11.5427411941
  C        11.4582602945        8.7278582334       10.8838030563
  H         6.2382795323       -1.0659185213       38.5107448673
  H         5.6442761643       -2.8570765148       38.2174680321
  H         6.4905349438       -1.9293702262       36.9770839640
  H         1.3753150088       -2.8990074082       17.8997597986
  H         2.7764949857       -2.6241569472       17.0446731680
  H         1.1514872526       -1.9673982617       16.4501349997
  H        17.6695085680        2.9607063318       21.4465243433
  H        17.3669776289        1.2455665413       21.4425661892
  H        18.9510165901        1.7307213286       22.0676922082
  C        12.3432599805        6.8749462683        9.9330339692
  N        12.0472217824        8.2331179642        9.7890523435
  O        11.1331853369        9.9253518652       11.0545323211
  S        12.9444364948        5.9987877464        8.4244351046
  C        12.1594098110        9.0468433220        8.5607025512
  H        12.4928140370       10.0644964953        8.9162410231
  H        12.9139399076        8.5969235456        8.0338618833
  C        10.8879017169        8.9381820169        7.7924817828
  H        10.4143207246        8.0431246634        8.0083047783
  H        10.0792752729        9.7036972087        7.8793702281
  H        10.8725189046        8.7803501386        6.7403567693
  H         4.8059325423        1.8368362216       12.4182006114
  C         3.9924022064        2.4516029612       12.5895992374
  H         4.3906859945        3.4644499684       12.6697449951
  C         3.2337169248        2.2866911552       11.3157871699
  C         3.1591972739        2.1486705786       13.7944761508
  C         4.1049466401        2.5969954438       10.0983336197
  H         2.3743214034        3.0300744833       11.0324565131
  H         2.8318073047        1.2939177391       11.1620216222
  H         2.8255863111        1.1384532212       14.0064467128
  H         2.0920334547        2.4176519861       13.6469242788
  H         3.6154609910        2.4964895981       14.7736121030
  C         4.6926065244        1.2705988689        9.4910220533
  H         3.4488458721        3.1113487296        9.4245838368
  H         4.9547393860        3.3091307029       10.2806706789
  C         5.3668598880        1.7046074735        8.1862371669
  H         3.8320399871        0.7429273946        9.2937098609
  H         5.3133304960        0.8227721735       10.2958679058
  C         6.7016055203        2.3895253082        8.2252081477
  H         4.8940779604        2.3137383670        7.4524600251
  H         5.5041161912        0.7840074317        7.6080718434
  C         7.9390700792        1.6086081029        8.7844524178
  H         7.1565389319        2.5680983024        7.2453219928
  H         6.6286190604        3.3694560414        8.6708640627
  C         9.1893933549        2.4832536392        9.0716563579
  H         8.0915183569        0.7873280719        8.1117573095
  H         7.8114524217        1.0929382878        9.7192924481
  C         8.8123343051        3.7606490108        9.7840518919
  C         9.6587348273        3.2549063418        7.8626110416
  C        10.3147951744        1.7098603591        9.7837219896
  C         9.1092882144        4.9035949918        9.0624833687
  C         8.3014649882        4.0326344637       11.0713761776
  C         9.5468238284        4.6076382105        7.7784192209
  C        10.1637987742        2.7144146754        6.6170880006
  H         9.8202733724        1.2879354669       10.7128475007
  H        10.7662005860        1.0523658278        8.9832834727
  C        11.4843743136        2.6881345316       10.1844576199
  S         8.6263852600        6.3565866179        9.8308052546
  C         8.0697409613        5.3302150032       11.2156316987
  H         8.0440123219        3.2421122232       11.6504815791
  C         9.9144022497        5.3039069862        6.6482290937
  H        10.3216120361        1.6768087147        6.6257080759
  C        10.4724502962        3.3897172115        5.5213645206
  H        11.0698665317        3.5060849571       10.6071510848
  H        11.9880509074        2.9971746600        9.2962489116
  C        12.5272389149        2.0475453995       11.1247793966
  C         7.4866039319        5.9775955493       12.4224521308
  C        10.4437321674        4.7728949124        5.4910770934
  H         9.9144524406        6.4103574473        6.6024858976
  C        10.8135839681        3.1083548207        4.2364296457
  H        13.4286737892        2.5940008514       11.2497716507
  H        12.8554646554        1.1375157627       10.5932691330
  C        11.9206253387        1.7857092440       12.5178018940
  C         7.4696497392        7.4381618870       12.6866158471
  C         6.9514193983        5.1000128871       13.5360551352
  C        10.8183547892        5.4743365915        4.2348392197
  C        11.1121097433        4.1688731766        3.4548481734
  S        10.9309489995        1.5731633176        3.3878223917
  H        11.4318645635        2.6254152458       12.7823264423
  H        11.3014405535        0.9345903741       12.4350960397
  C        12.9079871474        1.7582992916       13.6878638177
  N         7.7393308928        8.4711911676       11.6723066785
  C         7.1974203904        7.9630401128       13.8959147949
  C         6.6007762204        5.7573971373       14.7605803859
  H         6.5094804697        4.1318520317       13.3317252875
  C        12.1312563706        6.3619370053        4.5560541925
  C         9.7396482111        6.3091517467        3.6094181717
  C        11.4476935888        3.8393418633        2.1202696450
  C        11.5031679639        2.4935928484        2.0079082384
  H        13.6230917563        2.4643064763       13.3989765552
  H        13.4021015849        0.8411488645       13.5840978744
  C        12.1886880957        1.9179799921       15.0568994274
  S         7.7270115832        9.8656762231       12.4325441932
  N         7.3894709706        9.4047435002       13.9839054523
  C         6.7415529165        7.2716665399       14.9802408180
  H         5.9134509104        5.2083486151       15.5092443881
  H        11.8785025706        6.9565495611        5.5416174395
  H        12.3146942637        7.2227221059        3.8297660557
  C        13.3884983274        5.5777735723        4.8856955570
  H         9.3153130217        6.9833928884        4.3311269096
  H        10.1848254805        7.1115585210        2.9070701762
  C         8.6234278024        5.5207278377        2.8550975753
  H        11.5515261192        4.5706331128        1.3565616590
  C        11.7979105168        1.7338105316        0.7413117184
  H        11.6361063308        2.8454644359       15.1067035302
  H        11.3551436441        1.2001813605       15.0939126072
  C        13.0934003210        1.6299467135       16.1290204322
  C         6.6240316132        7.9719582347       16.2386648490
  H        13.2512276935        4.7999086447        5.7625895094
  H        13.6933453642        4.9680005348        4.1290100667
  C        14.4364922948        6.5006825274        5.3152453054
  H         8.1302324729        4.7541726149        3.6581134206
  H         8.9296316008        4.9700546553        1.9397553049
  C         7.5401280652        6.4525847620        2.3017822593
  C        11.8695140117        0.3431395387        0.6055133772
  C        12.0487901951        2.5248726828       -0.4783503245
  H        14.0235582121        2.2528902375       16.1835645069
  H        13.3746819183        0.6109722658       15.9648624494
  C        12.4420185821        1.7682544594       17.5075051756
  H         6.9856332425        8.9673514721       16.1900477410
  C         6.4405912755        7.5705449567       17.5361752773
  H        14.0949658224        6.9675665707        6.2987750769
  H        14.5364353748        7.3635957366        4.6079984786
  C        15.9321136908        5.8583196183        5.2991204476
  H         7.4474219923        7.1606742512        3.1506476945
  H         7.8204922733        6.9225836054        1.3559586465
  C         6.2933244731        5.6919062382        2.0038824483
  N        11.7780564841       -0.6279819920        1.6265074587
  C        11.9748432514       -0.2701708044       -0.6524405893
  C        12.3732984593        1.9187870917       -1.6822439123
  H        11.9374896101        3.5104558758       -0.4343172833
  H        11.5206455280        1.2999720482       17.6094479372
  H        12.1816027265        2.7987701299       17.7768613613
  H        13.1095242726        1.5773199487       18.2659002001
  S         6.0501770407        5.9925001607       18.0268551563
  C         6.5317851949        8.5810872565       18.6362257582
  H        15.8908595833        4.8549128899        5.2182907635
  H        16.4291455400        6.2462421304        4.4102728982
  C        16.5143368713        6.3706331630        6.5470040041
  H         6.1697186587        4.6965229798        2.4571755609
  H         6.3616410980        5.4992401955        0.8216147233
  C         4.9350796873        6.4985651781        1.8727116514
  S        11.7350000702       -2.1028307464        1.0058669533
  N        11.9001720640       -1.6611442908       -0.5242243964
  C        12.2196064256        0.4239456964       -1.8314960744
  H        12.2868932864        2.7669502180       -2.4609951402
  C         5.8920392298        6.7199600015       19.6575308621
  N         6.1041285343        8.0661893615       19.7516594243
  O         6.8084910225        9.7317364440       18.4252140681
  H        16.9006886815        7.3520457488        6.4176299622
  H        15.9299505534        6.3658538012        7.4590597551
  C        17.6520507395        5.3514635988        6.9191621447
  H         4.1848252433        5.8621101174        1.4725814633
  H         4.6592588131        6.7751075548        2.8361081916
  C         5.0790592952        7.8097934010        0.9603572384
  C        12.4292790696       -0.4258334140       -3.0016968525
  S         5.4607660000        5.7527009642       21.0217075214
  C         6.1561051190        8.8209694364       21.0310893307
  H        17.5133900237        5.1424366583        7.9080996780
  H        17.5317338966        4.4726301124        6.3700015734
  C        19.0555021770        6.0740496389        6.9788935457
  H         4.7543442623        7.5647888209       -0.0844377514
  H         6.0305104625        8.2064949686        0.9041591506
  C         4.3359522421        8.9896216763        1.5356319466
  H        12.1363262694       -1.4618995114       -2.9428692384
  C        12.9734671186       -0.1727701759       -4.2471362273
  H         5.4471398364        8.4377881869       21.7644558424
  H         5.8105436352        9.8300794722       20.7546137757
  C         7.5551704895        8.8499163588       21.6378056905
  H        19.5425002637        5.6371116980        7.8677950561
  H        18.8931047229        7.0483141159        7.1642411411
  C        19.9138614461        5.8438187634        5.7243156915
  H         3.2969444895        8.5905723117        1.7100787300
  H         4.8813181342        9.3028698675        2.4509740198
  C         4.2787397822       10.1262847695        0.5287614519
  S        13.7357207377        1.3455750764       -4.7017539634
  C        13.1699774077       -1.2734444865       -5.1485094241
  H         7.4054860900        9.0027277546       22.6893155350
  H         8.2607395711        9.6704515318       21.3283735063
  H         8.0829709942        7.9210474095       21.6505127294
  H        20.2569709012        6.8250578668        5.4483530188
  H        20.8371822012        5.2392408384        5.9982819290
  H        19.4229607573        5.3149565449        4.8871420994
  H         3.6757579699       11.0189236831        0.9542179453
  H         5.2501076677       10.5300101089        0.0394846840
  H         3.4993336972        9.8301011740       -0.2954588456
  C        14.0277672790        0.5931100462       -6.2385253448
  N        13.8064913099       -0.7129736924       -6.2844213786
  O        12.6853719347       -2.3568553974       -5.1027780377
  S        14.7744641185        1.3587623055       -7.6598434560
  C        14.0867553771       -1.5718358746       -7.3927296087
  H        14.2712772449       -2.5504044559       -7.0060739088
  H        14.9552871192       -1.2990281347       -8.0624010666
  C        12.7889937655       -1.5149463818       -8.2674455028
  H        12.0635903036       -1.0054875439       -7.8226950994
  H        12.5203558388       -2.4885284152       -8.5387631269
  H        12.7953507753       -1.0325742789       -9.1946135634
