352
 i =    93200, time =    46600.000, E =        99.7875095852
  H        12.1505847926        6.9619344876       32.1568098424
  C        11.7292314341        5.9143085885       32.2810344973
  H        12.6426050014        5.3881726290       31.9559943126
  C        10.6264332408        5.7463423417       31.3304550215
  C        11.4409573041        5.4852520267       33.6691458912
  C        11.1723533444        5.7628199865       29.8898246474
  H        10.2611970029        4.7754538561       31.4072610740
  H         9.8552795665        6.4978859969       31.4146712620
  H        12.3395988922        5.1002276463       34.0311509825
  H        11.1341800962        6.3247482298       34.3115079918
  H        10.7627672037        4.6627009335       33.6934633291
  C         9.9773380121        5.5782568302       28.8627614582
  H        11.9630529963        4.9984766071       29.8128888635
  H        11.6293833359        6.7708987596       29.6923435366
  C        10.4604455301        5.6841138327       27.4267976249
  H         9.6002223708        4.6560788095       29.2435583438
  H         9.2553179390        6.3843351789       29.0465216896
  C         9.4280808119        5.1319938066       26.4880241676
  H        11.3669378065        5.1367147185       27.3080652933
  H        10.7328994361        6.7338976181       27.2756532898
  C         8.1540915653        5.9976100358       26.2397514427
  H         9.8452217215        5.0384032154       25.4678729337
  H         9.1507164341        4.1254523335       26.7650074746
  C         7.0143845743        5.2903861084       25.4947524438
  H         7.8720256274        6.3919538763       27.2133940015
  H         8.4167091472        6.8131768128       25.5632931733
  C         6.5871449226        3.9633623925       26.1540739081
  C         7.4168705596        4.5374698697       24.2433173067
  C         5.7084706635        6.1106452273       25.4064038553
  C         6.8293041073        2.8646742253       25.3439039842
  C         6.0183150628        3.5383610114       27.3618610467
  C         7.2745841406        3.1582886878       24.0797720433
  C         7.9574889632        5.0883469535       23.0860438580
  H         6.0795544886        6.9103159729       24.7258257788
  H         5.4963773096        6.6992616310       26.3444891416
  C         4.3789750452        5.5713238039       24.9064111928
  S         6.4798684137        1.3432676374       26.1167683861
  C         5.9697628608        2.2121180104       27.5708420560
  H         5.6197539755        4.2861760070       27.9744690070
  C         7.7668637928        2.5198125760       22.9458904467
  H         7.9371083434        6.1272246469       23.0784585441
  C         8.3860061872        4.4981308157       21.9398176820
  H         4.3818192717        5.2875776392       23.8486372123
  H         4.2483312668        4.5949275915       25.4025911970
  C         3.1333220826        6.4673533694       25.0380756515
  C         5.5812530325        1.5305401935       28.8508550738
  C         8.3005483400        3.1800238890       21.8435970345
  H         7.7075578510        1.4444838083       22.9479519477
  C         8.8061567032        4.9097170339       20.7456554787
  H         2.5075960733        6.1826739036       24.1749250007
  H         3.4468608578        7.4792432756       24.8074467854
  C         2.4103245799        6.3763599477       26.4031660454
  C         5.7584835281        0.1384224274       29.1328536025
  C         5.0840218564        2.3418516136       30.0119104067
  C         8.7928449883        2.4980879870       20.5429187773
  C         9.1169166931        3.8478858412       19.9379960103
  S         8.9790387093        6.4968286396       20.0964163788
  H         1.6988430498        7.1988531746       26.5050320422
  H         3.1801147634        6.4024137104       27.1540117542
  C         1.6175722678        5.0759677290       26.6405931166
  N         5.8465025255       -0.7892387953       28.1180520186
  C         5.5890622568       -0.4032325366       30.3664736869
  C         4.9674465133        1.8249398087       31.2828564892
  H         4.6977102682        3.3315059834       29.7813812498
  C         7.6390427390        1.6830162295       19.8590470806
  C        10.0665733150        1.6169824109       20.7005824578
  C         9.6685606561        4.3022865798       18.7181830452
  C         9.5786008172        5.7149132877       18.6566763595
  H         1.2020446366        4.7656850679       25.6457520382
  H         2.3360724613        4.2265983198       26.7117050790
  C         0.7562727673        5.1219761460       27.9103815789
  S         6.1430318148       -2.1825921694       28.8692685198
  N         5.9213686749       -1.7574067947       30.4249359486
  C         5.2653315651        0.3787603808       31.4890587940
  H         4.6806528810        2.4971452579       32.0054162058
  H         7.5769289921        0.7615241292       20.4240620085
  H         8.0967098898        1.5206860751       18.8187107848
  C         6.2654536642        2.3230540096       19.6452211592
  H        10.2710834789        1.1293773640       19.7569323882
  H         9.9134883387        0.8561372791       21.4633972077
  C        11.1790536190        2.5035142973       21.3833943877
  H         9.7962218677        3.5839654730       17.9789745578
  C         9.9130976049        6.4614576139       17.4296403279
  H         0.3061851167        4.1332164061       27.9859230631
  H        -0.0572645204        5.7640082676       27.8136903881
  C         1.6538295946        5.4218744422       29.1455964307
  C         5.0198459897       -0.2600037577       32.7712313888
  H         6.4160914212        3.3206206528       19.9444165516
  H         5.4370325312        1.9226347982       20.3119932140
  C         5.7602079798        2.1457331691       18.1795503852
  H        10.8831107169        3.0774348622       22.2646096849
  H        11.6112307165        3.2304915219       20.7011573214
  C        12.4264641496        1.7165300670       21.7642884616
  C         9.9874220123        7.8405137331       17.2341654541
  C        10.0303644479        5.6793317538       16.1789147382
  H         2.6349965659        4.9066988783       29.0555254584
  H         1.7819265454        6.4434372087       29.2127260071
  C         1.0608797969        5.2675625151       30.5347466639
  H         5.3685497153       -1.3296586751       32.7620475570
  C         4.7249651112        0.1933463897       34.0025038515
  H         6.0349301120        1.1373032460       17.8939801955
  H         6.4360453562        2.7134446384       17.5854868126
  C         4.3657513810        2.6541462817       17.8451499001
  H        12.0560731460        0.8776025571       22.3090939916
  H        12.9120445559        1.3400340043       20.8499783269
  C        13.4415141977        2.5301505271       22.5806883658
  N         9.8433266286        8.7601875449       18.2410141469
  C        10.3380262009        8.4151899478       16.0303855562
  C        10.3379709742        6.2626577590       14.9920851158
  H         9.9033496932        4.6017734156       16.1514290225
  H         0.1830559119        5.9171300951       30.6205320690
  H         0.8149600360        4.2657516560       30.8221773690
  H         1.8170159881        5.4775780802       31.2108319587
  S         4.2374035699        1.8198750651       34.4459532566
  C         4.6350864912       -0.8273256624       35.0417713939
  H         3.8688308338        3.1224965683       18.6554616129
  H         4.6503361575        3.4384978765       17.1382567604
  C         3.4656529157        1.5206924161       17.3555867955
  H        12.9218387623        3.1223937599       23.3607923106
  H        14.0626366036        3.1301538961       21.9059550427
  C        14.2948465007        1.5146913294       23.2858513990
  S         9.9461613757       10.2559654936       17.6482190833
  N        10.4298156774        9.7537564520       16.1710147041
  C        10.5221456324        7.6626799016       14.8712484265
  H        10.4355378961        5.5775630329       14.1114477286
  C         4.2367834352        1.1809981821       36.0601827181
  N         4.1696944592       -0.1801269533       36.1604807103
  O         4.8695500066       -2.0260266369       34.9531355601
  H         4.0783395584        1.0295539576       16.5705138129
  H         2.5671677268        1.9371334742       16.9270878053
  C         2.9857424751        0.6640367530       18.5718632210
  H        13.7714495762        0.9791661057       24.0516718398
  H        14.4375649166        0.7463057945       22.4936473419
  C        15.7153305516        1.9523104904       23.6903860126
  C        10.8929499028        8.3938901063       13.7109761557
  S         3.7546999279        2.1560134206       37.3650094163
  C         3.9435984611       -0.8168304502       37.4925862673
  H         3.7256127106        0.4855723926       19.3616890341
  H         2.1455731009        1.2347794354       18.9220248792
  C         2.5082177005       -0.6374566237       18.0347336722
  H        16.1520075653        1.2878201551       24.4075646579
  H        15.5103037257        2.8228942735       24.2389155663
  C        16.7566114791        2.2783620721       22.6146850815
  H        10.6444071441        9.4320084279       13.7557301687
  C        11.4074599890        8.0159121383       12.4788648677
  H         3.0421370413       -0.3312573156       37.8478527050
  H         3.7065723102       -1.8929447476       37.4010431740
  C         5.1778983402       -0.7320837976       38.3886123759
  H         3.1706043902       -1.1560853642       17.2850052247
  H         1.5486605444       -0.5233943869       17.5142782397
  C         2.5036470803       -1.7905427738       19.0225451066
  H        16.3839802913        2.3657891692       21.6256125366
  H        17.1180637651        3.2497227664       22.8539738063
  C        17.8960614279        1.3589024196       22.8000688789
  S        11.6692559184        6.3819703395       11.8930024658
  C        11.6093358476        9.0875248678       11.4157942600
  H         4.8664005641       -0.3681315334       39.3485970816
  H         5.6966158014       -1.6730821637       38.4428167025
  H         5.9840636914       -0.0079630678       38.1041967301
  H         3.5134644851       -2.1222268261       19.2151523287
  H         1.9384176311       -2.5753192310       18.6329228157
  H         1.9204289710       -1.4735396499       19.8272139485
  H        18.8039646640        1.7624813101       22.3681770419
  H        17.6685774541        0.4935469663       22.1583407982
  H        17.9864505421        1.1604830893       23.8947900627
  C        11.9918163435        7.1310144354       10.3557189449
  N        12.0186510254        8.4915368505       10.2724969073
  O        11.4185897450       10.2664872705       11.6377641056
  S        12.9854190486        6.1937815971        9.2970272009
  C        12.3029795035        9.2776367162        9.0886908464
  H        12.7962617282       10.1996026413        9.3966584071
  H        12.9653747141        8.7796708091        8.4535606301
  C        10.9980590639        9.6834316193        8.3521882676
  H        10.4028676235        8.7888369648        8.1317718135
  H        10.3066596923       10.3269762520        8.8923682251
  H        11.1354558091       10.1673643035        7.4160784987
  H         4.3419214109        1.9867074398       12.3123709358
  C         3.5862802531        2.7253858959       12.1869465272
  H         4.0236081708        3.6882237170       12.1944624313
  C         2.7025308982        2.4372734794       10.9754129919
  C         2.7982828130        2.6125686307       13.4512039727
  C         3.5036074003        2.6396424833        9.6873975264
  H         1.8562853059        3.2367385304       11.0389654562
  H         2.1985690589        1.5237196326       11.0834077804
  H         1.9928360516        3.3148734675       13.4611840187
  H         3.3798253472        2.7921577272       14.3330855182
  H         2.3992223247        1.6385770963       13.5485059704
  C         4.2998491834        1.3826387213        9.3421106305
  H         2.8977271997        2.8250963597        8.8693733378
  H         4.1417203199        3.5481307426        9.8450033232
  C         5.2992391640        1.5183389973        8.2148058144
  H         3.7048907896        0.6375719159        8.9304172491
  H         4.8447277501        0.8290961358       10.1376349562
  C         6.4541132404        2.5322047799        8.5891981725
  H         4.7389724823        2.0362360925        7.4141043977
  H         5.6140427051        0.5912179691        7.7363753880
  C         7.7356186859        1.8625033145        9.0870405336
  H         6.7010809431        3.1689781833        7.7241702243
  H         6.1481960670        3.2002689907        9.3250571895
  C         9.0155512756        2.6726827189        9.2727396681
  H         7.9503248496        1.0793056902        8.4015040436
  H         7.5066390635        1.3477825295       10.0024187419
  C         8.7294213506        3.9975221670        9.9303677004
  C         9.5272134488        3.3658829157        7.9943284945
  C        10.2017916518        1.8852635225        9.8593937759
  C         9.1256751572        5.0469594754        9.1878716352
  C         8.1899648457        4.3644156168       11.1415227789
  C         9.6582191992        4.6889179430        8.0112394912
  C        10.0508988712        2.7279167114        6.8184518870
  H        10.0018808313        1.4535096593       10.8700878043
  H        10.5103011191        1.1207594414        9.1308889514
  C        11.5877646043        2.7042699199       10.0790512622
  S         8.7489385113        6.5691577262        9.9176860080
  C         8.0895360457        5.7135933272       11.2910358214
  H         7.8485215666        3.6038670518       11.8448779369
  C        10.0911636949        5.3753685496        6.8978932575
  H        10.0007364151        1.6586423689        6.7009104852
  C        10.3270737849        3.3716074939        5.6635323384
  H        11.3413111487        3.7141775684       10.5302248552
  H        12.0864255368        2.8806170188        9.1021687610
  C        12.6146790783        2.0410066349       11.0979584208
  C         7.6135888433        6.4184676008       12.5471508900
  C        10.4150522612        4.7240428097        5.6944743803
  H        10.2730567490        6.4114924952        6.9148999119
  C        10.6917808857        3.0902031870        4.4218649933
  H        13.7123860842        2.0624508998       10.8682242564
  H        12.4613124635        0.9462642096       11.2865167398
  C        12.5296520319        2.5659230081       12.5233412890
  C         7.6914874674        7.8261094107       12.7470316097
  C         7.0196385984        5.6732880965       13.7116114652
  C        10.8379206903        5.4810068116        4.5067020033
  C        10.9599615324        4.1830266348        3.7040028548
  S        10.9996239458        1.6307689001        3.6022076015
  H        13.5622604223        2.9619860898       12.7213333766
  H        11.9705841350        3.4694440462       12.6888676633
  C        12.0972844223        1.5882415776       13.6062285732
  N         8.0827011779        8.6942050528       11.7563276791
  C         7.3924172466        8.4537015319       13.9427134566
  C         6.8244228005        6.3035875853       14.9634785455
  H         6.8469675184        4.5876918845       13.6583030969
  C        12.1898822807        6.3264236827        4.8139622664
  C         9.7260346242        6.3711063736        3.7940370308
  C        11.4448312174        3.8548581441        2.4079891218
  C        11.4333410216        2.4673154620        2.1714255900
  H        12.8985254349        0.8528927579       13.4808071689
  H        11.1681786630        1.1690275743       13.2831689497
  C        11.9876509146        2.0687148636       15.1123715644
  S         8.1306021485       10.1556367877       12.3363838178
  N         7.6682688315        9.8059096201       13.8409577960
  C         7.0089845679        7.7977403116       15.1494679203
  H         6.4705762983        5.6543338471       15.7707686713
  H        11.7851741822        7.1552036140        5.4765388979
  H        12.5237551387        6.8805153040        3.9617753695
  C        13.2831655363        5.5409756726        5.5098579055
  H         9.3813003361        7.0223515083        4.5653467777
  H        10.2498410388        7.0191388581        2.9823479118
  C         8.5098432492        5.6184304179        3.2997070173
  H        11.7882146025        4.6330381452        1.7186082292
  C        11.9055111194        1.7160683618        0.9330168756
  H        11.6481383060        3.1277336098       15.0149245214
  H        11.1853439216        1.5208978808       15.6165251657
  C        13.3330763936        2.0106330241       15.8495172212
  C         6.7513916244        8.5045833856       16.3514339270
  H        12.9152619750        5.0344362709        6.4031874140
  H        13.6424415945        4.7140980801        4.9377837743
  C        14.5216396581        6.3631981268        5.8449744610
  H         8.2402833322        4.8677864338        4.0704327798
  H         8.7423985302        5.0142355593        2.3540569004
  C         7.4147173087        6.5268194446        2.7727446733
  C        12.0024162732        0.2991978016        0.8113585243
  C        12.1851816359        2.5000773385       -0.3153805802
  H        14.0131245440        2.7183356421       15.4250671718
  H        13.7013483091        0.9925757821       15.5431416354
  C        13.1236483556        2.1467503183       17.3273530786
  H         6.9149978027        9.5946757339       16.3396607678
  C         6.3523832070        8.1309453651       17.6137698805
  H        14.1892796655        7.2765914011        6.3449833424
  H        15.0226701506        6.6703790086        4.9326673711
  C        15.5471350939        5.5561329538        6.7347601485
  H         6.9347198644        7.0926727514        3.5351070691
  H         7.9422837994        7.2271692810        2.1192388820
  C         6.4786825084        5.8917544032        1.8323007520
  N        11.6404756772       -0.6363034253        1.7511219258
  C        12.2437190383       -0.3009810187       -0.3739701105
  C        12.4786369954        1.8677322887       -1.5347375890
  H        12.3635952121        3.5367168796       -0.1331969850
  H        12.2499315040        1.6208417370       17.7034445379
  H        12.9403186811        3.2004242728       17.5567454662
  H        14.0723995183        1.8010409713       17.8526768569
  S         5.9711232615        6.4801154336       18.0688954231
  C         6.2134066364        9.0519941455       18.7275604225
  H        15.5188733030        5.7298633556        7.7717615511
  H        15.3567904674        4.5394333397        6.6348638310
  C        16.9660190133        6.0810715597        6.2640666984
  H         6.4836261341        4.8622341883        2.0443587487
  H         6.8844952166        5.9574204886        0.8090819675
  C         5.0608895638        6.5172478368        1.9013180216
  S        11.7788231721       -2.1875204060        1.2628023803
  N        12.1727099488       -1.7110843407       -0.2789772687
  C        12.5348631551        0.4103070259       -1.6065454475
  H        12.7235419346        2.4327543675       -2.3494321179
  C         5.8256612696        7.1219346123       19.7304923617
  N         5.9031885111        8.4657726940       19.8997411857
  O         6.2948799932       10.2477416759       18.5805907810
  H        17.1362038229        5.6453244207        5.2257455559
  H        16.9511575677        7.1641357941        6.2401993518
  C        18.0953724134        5.4894174844        7.1194003238
  H         4.2991097606        6.1469120960        1.2609243695
  H         4.6885529424        6.4029105423        2.9141840989
  C         5.2659159002        8.0156988757        1.4853324980
  C        12.8544615892       -0.2947237073       -2.7751247749
  S         5.3950198903        6.2537404409       21.1751039238
  C         5.7425206839        9.3160243156       21.1469202818
  H        17.6401414192        5.4789594627        8.0691728680
  H        18.2245999239        4.4275011892        6.9472198205
  C        19.4014590001        6.3353630563        7.1478306105
  H         5.8029735137        8.0524833566        0.6062554379
  H         5.8814553252        8.5247648660        2.2029133358
  C         4.0004007293        8.8024446882        1.3718459994
  H        12.3865880388       -1.2654261190       -2.7549122564
  C        13.2258808605       -0.0001290869       -4.0689019478
  H         4.8889038031        9.1051486017       21.7616257681
  H         5.5424950900       10.2668364013       20.8687528286
  C         7.0083322020        9.2130008082       21.9806535287
  H        19.9173406013        6.1082869878        8.0715367209
  H        19.2318512226        7.3523715968        6.9286752250
  C        20.3312340772        5.7330668985        6.0851526345
  H         4.3580819137        9.6853762465        0.8345390609
  H         3.2722988911        8.2730763546        0.7794280852
  C         3.4324227849        9.2226442982        2.7032108046
  S        13.9744398502        1.5743307524       -4.4862589067
  C        13.2441741213       -1.0951536239       -5.0897035750
  H         6.8934882120        8.5102926846       22.8638231269
  H         7.3077425908       10.2131015364       22.4039028658
  H         7.8047242722        8.7730049669       21.2579420099
  H        20.9732816842        4.8801414670        6.4075575367
  H        19.7809241923        5.5395556749        5.1565138519
  H        21.1319089635        6.4371779458        5.8946631614
  H         2.9793936435        8.3150703520        3.1197783316
  H         4.1846968430        9.5535590604        3.4207157160
  H         2.5879709535        9.9298774306        2.6766887871
  C        14.1368822924        0.8315703944       -6.1244122485
  N        13.8418570627       -0.5370714523       -6.1965926041
  O        12.8823851165       -2.2850705928       -4.8830585276
  S        14.8837532062        1.7495556693       -7.4536872699
  C        14.1482387523       -1.4072105954       -7.3423119865
  H        14.5630250366       -2.3806158281       -6.9706056042
  H        15.0103217132       -0.9357860678       -7.8022705173
  C        12.9554740310       -1.4078021019       -8.4161873586
  H        12.0060319251       -1.1615167532       -7.8630539912
  H        12.8815375827       -2.4354912731       -8.7300701325
  H        13.0402736882       -0.8591180341       -9.3506118248
