352
 i =    66200, time =    33100.000, E =       100.6299094974
  H        11.4157527972        7.2680694038       31.7796701784
  C        11.3440506932        6.2107778771       31.9740941403
  H        12.3804324322        5.9055781376       32.0218344119
  C        10.7747204301        5.4963262857       30.8482262590
  C        10.7092675037        5.8614150294       33.2979364761
  C        11.7135481605        5.6752501769       29.6885518944
  H        10.5849821977        4.4088299760       31.0104608600
  H         9.8198203237        5.9508553479       30.6413067878
  H         9.6948946316        5.5750269097       32.9873061210
  H        11.2347007910        5.0401620163       33.7941077121
  H        10.6900760793        6.8085808825       33.8679173186
  C        11.3347229953        4.8595187119       28.5878219117
  H        12.6684184068        5.4626504520       30.0521206609
  H        11.7277924927        6.7144517873       29.3508536734
  C        11.3853802303        5.6556304144       27.1973117799
  H        11.9978820380        4.0590736123       28.5822310241
  H        10.3480426483        4.4146597897       28.7051849008
  C        10.3704576405        5.0851733292       26.3247771819
  H        12.3838526837        5.6490935680       26.7086421027
  H        11.1679555738        6.6915431767       27.4251798275
  C         9.1075039369        5.8769627093       26.1039894722
  H        10.8139769899        5.0570586476       25.3443694574
  H        10.1367218944        4.0870433568       26.6640532997
  C         7.8235152264        5.2806477544       25.4365302867
  H         8.7656050669        5.9458081616       27.1613898207
  H         9.1791825657        6.9170478604       25.6777506189
  C         7.3194247172        3.9416890307       26.0601521442
  C         8.0458499416        4.6493336663       24.0861486463
  C         6.6383012409        6.2694378709       25.4577430132
  C         7.3710299894        2.8920692822       25.1803876391
  C         6.7042056451        3.6714528633       27.3276621325
  C         7.8473118195        3.3312372280       23.9514943329
  C         8.5493611383        5.2435466360       22.8605562614
  H         6.8204176273        7.1040724140       24.8512731696
  H         6.5858589966        6.5755561374       26.5256393371
  C         5.3197636028        5.6815493280       24.8980406091
  S         6.8467214778        1.3802400037       25.9036107971
  C         6.4257673834        2.2956242264       27.3556297361
  H         6.4496208619        4.4240590849       28.0614537431
  C         8.1751235949        2.6667557230       22.8029142835
  H         8.6264975745        6.3658574726       22.7727016407
  C         8.8692640617        4.5690318174       21.7240116627
  H         5.3668576878        5.4373405316       23.8661625230
  H         5.1553090235        4.7308395063       25.4139944600
  C         4.1725753170        6.6360823585       25.0383102136
  C         6.0175940174        1.5886105389       28.6317392022
  C         8.7009473367        3.2299208613       21.6499565884
  H         8.0935631951        1.5943961105       22.8835903907
  C         9.1646691282        4.9813658361       20.3849678810
  H         3.3759862756        6.3432551809       24.2863735642
  H         4.3906548922        7.7352432482       24.9863425504
  C         3.6119946622        6.5004641927       26.4647792104
  C         5.9945539941        0.2004535712       28.9099740616
  C         5.7083189880        2.4801439194       29.7879908357
  C         8.9927517417        2.5273721568       20.3052479790
  C         9.3038683059        3.8497538204       19.5817030708
  S         9.3610052886        6.4346680794       19.5828274892
  H         3.1115858483        7.4489130359       26.7235721910
  H         4.3686463121        6.2868105817       27.2105671064
  C         2.5409760761        5.3920219554       26.6461109875
  N         6.2909691012       -0.8410391431       28.0145295006
  C         5.7360810293       -0.2452803637       30.1841109896
  C         5.3651831112        1.9752741468       30.9952114191
  H         5.4981082671        3.5540521382       29.6712134595
  C         7.8300422952        1.6712778113       19.8426886842
  C        10.3073637279        1.7780107584       20.6022365998
  C         9.5303760829        4.1837799379       18.2121274904
  C         9.5700138289        5.5493694173       18.0961642724
  H         1.8371799880        5.3417300972       25.8328223776
  H         3.0673490677        4.4061792856       26.8345074317
  C         1.7451097574        5.6915770609       28.0326952103
  S         6.1063620984       -2.2246428135       28.8578026399
  N         5.6393270204       -1.5933050426       30.2791928515
  C         5.4755061972        0.5716709739       31.2873840228
  H         5.1173893586        2.6829539548       31.7962609301
  H         7.7500321779        0.7777465550       20.5080671138
  H         8.1009525574        1.2393587011       18.9083579535
  C         6.4589147364        2.4185446991       19.7251774305
  H        10.4440260750        1.0306944114       19.8397807358
  H        10.2227000734        1.1561180671       21.4859721733
  C        11.6183527991        2.5587700458       20.6718910158
  H         9.6584454245        3.4329380871       17.5151634529
  C         9.9767036301        6.3009268460       16.8595036461
  H         1.1256610829        4.7922518102       28.1706347606
  H         1.0189728147        6.5483971664       27.9110218142
  C         2.6844557539        5.7871124600       29.2743364211
  C         5.2689170488       -0.0250449341       32.5249623987
  H         6.6403579867        3.3100964426       19.1013792041
  H         6.2811193199        2.9083450741       20.6900447781
  C         5.3674943970        1.6291445007       19.1642398678
  H        11.5449535008        3.3838543605       21.4072430815
  H        11.8331596266        3.0051028971       19.7730189118
  C        12.7122979402        1.5849752020       21.2201943950
  C        10.1097074973        7.6993880991       16.6659340878
  C        10.3460235697        5.4640324860       15.6494114973
  H         3.3037630523        4.9554972331       29.1708495703
  H         3.3780626985        6.5836786061       29.2884670520
  C         1.9066610727        5.7221504648       30.5832394403
  H         5.5205666141       -1.0520592361       32.5940893788
  C         4.8432212029        0.3390094662       33.8101957275
  H         5.0445936012        1.0719047484       19.9777065302
  H         5.6768835867        1.0016443452       18.3258381727
  C         4.2198499209        2.5315375525       18.7684576646
  H        12.4121005759        1.2391797267       22.2563175887
  H        12.6874766363        0.6889084782       20.5867286223
  C        14.0443635029        2.3376951598       21.2991955211
  N         9.8626326815        8.5793091452       17.6942201379
  C        10.4165622125        8.3347583092       15.5007036885
  C        10.6996524733        6.0925457478       14.4291433637
  H        10.1763505422        4.4158071695       15.6289461433
  H         0.9906135991        5.0633877685       30.5262777527
  H         2.4058712112        5.2334992806       31.3584974537
  H         1.5027934842        6.6100032711       31.1468198596
  S         4.4283277061        1.9191036876       34.3495124676
  C         4.8040077798       -0.6188177990       34.9483086154
  H         4.0117134347        3.2316284775       19.4927258381
  H         4.6637012050        3.0569141373       17.9500451650
  C         2.8629622261        1.8202952414       18.3468094486
  H        14.1822735426        3.1928975740       20.6496434047
  H        14.7620326465        1.6307226870       20.8791871183
  C        14.4943134405        2.7500200561       22.7069283670
  S        10.1145705095       10.0905287018       17.1401832773
  N        10.4699161777        9.7434865122       15.5699692004
  C        10.7774515616        7.6180082447       14.3215015981
  H        10.9932930928        5.5519470789       13.5753620659
  C         4.1102367999        1.2716492551       35.9160261966
  N         4.3286613089       -0.0681578352       36.0489228252
  O         4.9875429181       -1.8317637279       34.8540527369
  H         2.2363681989        2.5663327040       17.7885697914
  H         2.2363244431        1.5327802626       19.2148104163
  C         2.9057414898        0.4737405453       17.5103054305
  H        13.7140957826        3.3186470428       23.1674449505
  H        14.6360309273        1.9984572049       23.4391177607
  C        15.6984527145        3.7027095892       22.6506936788
  C        10.9077542323        8.3819618629       13.1150048376
  S         3.9303573027        2.2616155611       37.3706163194
  C         4.2449404082       -0.8374550863       37.3482320445
  H         2.4300324827        0.5905319381       16.5790063029
  H         3.9342796964        0.4563795442       17.1868289431
  C         2.6615158674       -0.8729950579       18.1773498748
  H        15.9885416652        3.8833075761       23.6379512962
  H        15.3164167874        4.6706215095       22.2792310989
  C        16.8539989584        3.1610614199       21.8463642671
  H        10.6492775790        9.4399832280       13.1756846124
  C        11.3708819333        8.0265274270       11.8370313678
  H         3.3923622103       -0.5515572283       37.8442517374
  H         4.1124503048       -1.8770421547       37.0870761480
  C         5.5422370677       -0.6722344422       38.1746809466
  H         3.0360511838       -0.7596067703       19.2168957121
  H         3.2973650933       -1.6405071711       17.7892292579
  C         1.1944677453       -1.3944417129       18.3180102030
  H        16.6997910546        2.8446256937       20.8248134927
  H        17.4957636637        3.9675397445       21.7630093479
  C        17.6629375753        2.1228174941       22.6095354603
  S        11.8516634447        6.4709539817       11.2243517952
  C        11.4669939978        9.1056749344       10.8227309828
  H         5.4478272653       -0.0645970958       39.0879107686
  H         5.9970024489       -1.6250847847       38.4483524664
  H         6.2652883265       -0.1417000997       37.5229323355
  H         1.1433579876       -2.5333665872       18.3190381785
  H         0.6177060248       -0.9111516387       17.4993958472
  H         0.7951845879       -0.9090831378       19.2220810875
  H        17.0190705031        1.2559545046       22.6857694648
  H        17.8221559849        2.4370184189       23.6857418630
  H        18.6817877123        1.8937849347       22.1436232149
  C        12.2544653436        7.2824405303        9.7027317954
  N        12.1015390243        8.6317292444        9.7548444039
  O        11.0548498686       10.2843146699       10.9614740071
  S        13.0834513111        6.5382800613        8.2971504009
  C        12.4890942751        9.5425739029        8.5820602203
  H        12.8029492161       10.5160438769        9.0821646958
  H        13.3231200767        9.2532052202        7.9635834618
  C        11.2862257308        9.7948443465        7.6982823354
  H        11.3815384210       10.7907932897        7.2774702654
  H        11.3877456570        9.0867558654        6.8174204353
  H        10.3727644438        9.7175301541        8.1830133569
  H         4.8968334511        1.9600689182       12.9338738334
  C         4.1452292579        2.7365222586       12.9311805807
  H         4.5702181649        3.6939290254       12.7344108713
  C         3.2787128876        2.5445677910       11.5801474694
  C         3.3913221602        2.7444870835       14.1868349089
  C         3.9368996833        3.0719349034       10.3825505052
  H         2.2980750811        2.9434728975       11.7383027239
  H         3.0327838054        1.5166630027       11.3313586180
  H         2.6198873565        3.5231605969       14.1196230087
  H         4.1097132162        2.8277548597       15.0393341554
  H         2.9190551543        1.8100065267       14.3954600789
  C         4.2956521785        1.8082919627        9.4700009178
  H         3.3345606757        3.6160081645        9.7576263676
  H         4.7562631623        3.7365751656       10.5454515123
  C         4.9038498967        2.1646540762        8.1247631615
  H         3.4513956362        1.1284064746        9.3020933388
  H         5.0327406965        1.2624246988       10.0942059276
  C         6.1580834911        2.9648135865        8.2496143111
  H         4.2053782874        2.5461269074        7.3664388270
  H         5.2599233313        1.2880611588        7.6353667757
  C         7.3950378378        2.1678095870        8.7334899560
  H         6.4315104042        3.1692102802        7.2557981930
  H         5.9796415875        3.8426087709        8.8327000614
  C         8.6406989963        3.0417576515        8.8917147784
  H         7.5787203419        1.2262093765        8.1677410420
  H         7.1923305412        1.8339936250        9.7638905368
  C         8.3715339461        4.4278352794        9.5366683632
  C         9.1220027407        3.7091019511        7.6601148134
  C         9.8098201381        2.3473562460        9.6174013713
  C         8.6823473704        5.5646482297        8.7673344747
  C         7.8523915776        4.8333597979       10.7282208447
  C         9.1676043339        5.0531870737        7.5228314438
  C         9.6083479898        3.0439250566        6.4965781050
  H         9.3957336163        1.8736680360       10.5490300510
  H        10.1038843850        1.5360602733        9.0116338309
  C        10.9185361091        3.2979647227       10.0426764391
  S         8.4630233527        7.1185222559        9.4782290716
  C         7.8605014515        6.2341553160       10.8870990205
  H         7.7407330985        4.1003720281       11.5175845802
  C         9.6109390379        5.6125612622        6.3251297701
  H         9.4885069866        2.0094351029        6.4321772757
  C        10.1572547403        3.6018549675        5.3312417950
  H        10.5769215714        4.1101128165       10.6554919169
  H        11.4533025319        3.7220908289        9.2380960514
  C        11.9662921948        2.6555403275       10.9454878596
  C         7.4419150947        6.8446507084       12.1804598790
  C        10.1473953023        4.9692376793        5.2056542773
  H         9.4334030169        6.6171639929        6.1076576298
  C        10.6254821743        3.1696969335        4.1100826877
  H        12.8942499520        3.1235206447       10.6825628035
  H        12.3577828299        1.6417432205       10.7332378399
  C        11.7221926924        2.9433916329       12.4283908017
  C         7.5480881486        8.2226051442       12.4886161687
  C         6.8940516135        5.9794491098       13.3068324887
  C        10.6616232748        5.6674634338        3.9716539147
  C        11.0081113542        4.2592651269        3.3111097146
  S        10.9200059465        1.6738589873        3.3618648960
  H        12.3026757912        3.8717925186       12.7521748895
  H        10.6996714610        3.1444668326       12.7304631173
  C        12.1356918052        1.7356940853       13.2149686060
  N         8.0602131517        9.2052643538       11.6396012494
  C         7.3432128906        8.7239718171       13.7746984862
  C         6.6758361535        6.5162528910       14.5626623781
  H         6.6279138922        4.9398888750       13.1441757615
  C        11.9181100862        6.5546281770        4.0783570051
  C         9.5615245652        6.4777990715        3.1628097887
  C        11.5351052677        3.9304500144        2.0327895191
  C        11.5363096332        2.5423626108        1.9016823665
  H        13.1260936325        1.5084558788       12.8910918252
  H        11.5720452643        0.8333291405       12.9353298245
  C        11.9399033182        1.7853604929       14.7532474100
  S         8.1056224729       10.6561158648       12.4542894498
  N         7.5149022048       10.0833838927       13.8463199203
  C         6.9639660675        7.9492862485       14.8905817454
  H         6.1387644902        5.8825011679       15.2658649155
  H        11.7096567013        7.3578739927        4.8265758957
  H        12.1747056172        6.9941415188        3.0936677849
  C        13.1295013758        5.7210053057        4.5427015559
  H         9.2602512514        7.4021550178        3.6759804272
  H        10.0283807625        6.7935025213        2.1807372617
  C         8.3691016005        5.6831855499        2.8157369458
  H        11.7366254982        4.7678763999        1.3054733857
  C        11.8693107639        1.7291981963        0.6786659678
  H        11.2080567782        2.4444801719       15.1125349019
  H        11.4650171532        0.9000514267       15.0714480858
  C        13.2028343815        2.0552623547       15.4906917490
  C         6.7264068912        8.6183237631       16.1317602245
  H        12.7700022949        5.1315824308        5.4531421805
  H        13.4892763738        5.0619321558        3.7907507479
  C        14.3260999234        6.5976150920        4.9624087516
  H         7.7258387237        5.5046216791        3.6860755026
  H         8.6050463323        4.7087477473        2.4215126569
  C         7.4596196730        6.4495835455        1.8388173338
  C        11.8084448156        0.3417155657        0.5028093771
  C        12.1329467631        2.4753700909       -0.5624081580
  H        13.6671606111        2.9529292141       15.0417282053
  H        13.9033254493        1.2823690932       15.4353393320
  C        13.0637819623        2.4207835455       16.9330765028
  H         6.9643598044        9.6395245234       16.1475054656
  C         6.3020394900        8.1386697410       17.3391204654
  H        14.0334666481        7.3241371963        5.6998714402
  H        14.7433061065        7.1564937195        4.1012708575
  C        15.3060131636        5.5658391736        5.4714451669
  H         7.1441829838        7.4080127261        2.1144627367
  H         8.0381696149        6.6135415665        0.9184304404
  C         6.2222255381        5.5875538393        1.5749296697
  N        11.6005328707       -0.5144840106        1.5388314296
  C        12.0998096269       -0.2896381749       -0.6793116604
  C        12.3231054565        1.8602480068       -1.7530942366
  H        12.1761926462        3.5105742445       -0.6382339290
  H        12.3102696724        3.2099761752       16.9576849728
  H        13.9376288022        2.9327908561       17.2689652157
  H        12.9074893739        1.5881815056       17.5250760882
  S         6.0095889703        6.4925335056       17.7865811458
  C         6.1495207053        9.0807185894       18.4717912737
  H        14.9885914170        4.8790043811        6.3065379734
  H        15.5028381523        4.9129447352        4.6624180331
  C        16.6565633999        6.1824914835        5.7773462401
  H         5.8517103209        5.1272260103        2.4863643931
  H         6.4727567505        4.7260215874        0.9423384379
  C         5.0536726084        6.3113235313        0.9164676611
  S        11.6401159171       -1.9751231990        0.9386911120
  N        12.0924842718       -1.7273975706       -0.5716181198
  C        12.3639230281        0.4005024498       -1.8773110791
  H        12.4406779088        2.4251546607       -2.6796645254
  C         5.7219609485        7.0535889719       19.4455481075
  N         5.8305870966        8.4040768931       19.5926220716
  O         6.3088233334       10.3109142279       18.4093629513
  H        17.3178895418        6.4375672950        4.9644538350
  H        16.4822765037        7.1604231622        6.1659817468
  C        17.3652521466        5.2718434644        6.8820359589
  H         5.4014903615        7.0740414480        0.2439489268
  H         4.6361185486        5.5305749814        0.1821627147
  C         4.0438900924        6.6970805744        1.9665614593
  C        12.7419632940       -0.3705402426       -3.0302677479
  S         5.4867250995        6.0765986153       20.9728013497
  C         5.8610908072        9.0557236363       20.9324822949
  H        16.7001545740        5.1618879589        7.7029364253
  H        17.6299474645        4.2549970654        6.4821668429
  C        18.6313804416        5.9803056671        7.4348247485
  H         4.4934351375        6.8647329586        2.9768819433
  H         3.3332774034        5.8543749580        2.0686800695
  C         3.3551405860        7.9747879014        1.6533088406
  H        12.4447825549       -1.4358836230       -3.1317794332
  C        13.2966117473        0.1231029686       -4.2061397946
  H         5.0013762639        8.7488411671       21.5020401976
  H         5.6895472978       10.0603440218       20.8960947469
  C         7.1709888535        8.8414234837       21.7099899746
  H        18.9670776783        5.4033744941        8.3209124333
  H        18.3145481275        6.9325750858        7.7337757435
  C        19.7145412063        6.2019392663        6.3019218358
  H         3.2165487550        8.1306097488        0.5985041284
  H         2.3564777894        7.9844422317        2.0547363004
  C         4.0731229230        9.2023462331        2.1462430493
  S        13.7443898756        1.7052347210       -4.6523599077
  C        13.3765106191       -0.7747289776       -5.3968074918
  H         6.8460076224        8.2592427085       22.5930777184
  H         7.6840860681        9.7937000319       22.0099437257
  H         7.8810965519        8.2303408157       21.1726441716
  H        19.9494070705        5.2175036734        5.9634901955
  H        19.3743012678        6.8701674556        5.4433421385
  H        20.5865731813        6.7128740405        6.6880512038
  H         3.9129631127        9.3545434611        3.2198375573
  H         5.1332098245        9.0316861990        1.9711553458
  H         3.6942032636       10.0428532657        1.5950069962
  C        14.1356330674        1.1462356871       -6.2980041743
  N        14.0071201003       -0.1901502234       -6.4109004245
  O        12.9648872328       -1.9716948444       -5.4364410783
  S        14.8023296037        2.0133349549       -7.6885420511
  C        14.0111529491       -0.9643802957       -7.6866082466
  H        14.1793962221       -2.0146058953       -7.5157450117
  H        14.7965136565       -0.6469233423       -8.3573420476
  C        12.6375315004       -0.8825881196       -8.4546189058
  H        12.3344468625        0.2066887821       -8.5020623454
  H        11.7643947678       -1.4132015494       -7.9593983685
  H        12.7475596990       -1.3842662944       -9.3389104199
