352
 i =    22700, time =    11350.000, E =        95.6539934221
  H         9.2154781249        5.0806634957       31.7643071080
  C         9.6650724577        6.0221229742       32.2238316985
  H         8.8116683011        6.5614020907       32.7235857962
  C        10.2469650589        6.7224647069       30.9991289931
  C        10.6851900403        5.6923924750       33.3154703606
  C        11.1372922684        5.7738076069       30.1637756182
  H         9.4845068063        7.2612153812       30.4932925114
  H        10.9119171836        7.5050966017       31.3314222221
  H        11.2065208377        4.7722441920       33.1029267497
  H        11.4108250922        6.5362302370       33.3766611840
  H        10.1521786942        5.5446225781       34.3093525353
  C        10.4078776410        5.0645216273       29.0989602509
  H        11.5333138438        5.0232371149       30.7890323793
  H        12.0665914208        6.2461926184       29.8658226016
  C        10.9721485698        5.4334376035       27.7145284744
  H        10.2941738193        4.0066198068       29.2009811709
  H         9.3247631551        5.3307023485       29.1205989302
  C        10.1793132348        4.8826068169       26.5463994387
  H        11.9111908881        4.9480896526       27.8220237658
  H        11.2123169796        6.5223045407       27.7516979840
  C         8.9109169296        5.6950145507       26.3108242287
  H        10.7676428892        4.7532202185       25.6389866095
  H         9.8981961822        3.8833887404       26.7850487453
  C         7.7138732662        4.9985402175       25.6529682423
  H         8.6535028934        6.1333631984       27.2786119940
  H         9.2019370474        6.6315347359       25.7744439064
  C         7.3627837918        3.6967776985       26.3086987416
  C         8.0996915688        4.3453058228       24.3269725240
  C         6.4125829790        5.8624319619       25.5456294065
  C         7.3820309168        2.6326959857       25.4626881208
  C         6.9173249873        3.3035491085       27.5765400819
  C         7.8941545275        3.0279590513       24.2079878871
  C         8.4963186702        4.9243331969       23.1154984650
  H         6.6245236944        6.6228612749       24.8022526288
  H         6.4188806784        6.4167491642       26.5300851052
  C         5.0703971738        5.1722223908       25.2472810650
  S         6.9032076914        1.1235896332       26.1241382679
  C         6.5657636672        2.0047783720       27.5943047302
  H         6.7311705496        4.1114847708       28.3013625751
  C         8.2034802145        2.3981340350       23.0257529590
  H         8.3841635538        5.9750657352       23.0713744254
  C         8.7998917194        4.2954463887       21.9339612363
  H         5.1223032976        4.6470603559       24.2805739806
  H         4.8589124488        4.4255022349       26.0340469639
  C         3.9183029793        6.1819740468       25.1506221978
  C         5.9511533420        1.2948507479       28.8050139472
  C         8.6945464974        2.9592388114       21.8364785603
  H         7.9989200129        1.3351045953       22.9866617800
  C         9.1441622300        4.6567262261       20.6744500031
  H         3.3057440472        5.6236949944       24.3219345478
  H         4.3266232102        7.2366673986       24.8490597035
  C         3.2115447467        6.3320422485       26.4804791094
  C         6.0134047459       -0.0497855557       29.0467568170
  C         5.3148380476        2.1400538149       29.8322772629
  C         9.0613015768        2.2799383438       20.5973002301
  C         9.3493055309        3.5900689868       19.8760678475
  S         9.3959928518        6.1176633168       19.9313196237
  H         2.9625845980        7.3600248611       26.7319517784
  H         4.0235915607        6.1834728067       27.1781269447
  C         2.1051000726        5.4038820322       26.7187342291
  N         6.5649579744       -1.0110741898       28.2231729559
  C         5.6072810329       -0.6096362535       30.2654661711
  C         5.0201645436        1.6004168658       31.0435223196
  H         5.1676474341        3.1684002770       29.5417455356
  C         7.8715817149        1.4530284414       19.9963325180
  C        10.2050676618        1.3402207679       20.6518270378
  C         9.9264204160        3.9372223821       18.6233413600
  C         9.8455493028        5.3158080890       18.4111264846
  H         1.5177410612        5.2728144690       25.8169328074
  H         2.3828743063        4.3177680348       26.8812313055
  C         1.0432336663        5.8867211364       27.7272582227
  S         6.4129540650       -2.4789487094       28.9583808207
  N         5.7649445222       -1.9936428723       30.2876422110
  C         5.1787336645        0.1624208181       31.3683709740
  H         4.5571983915        2.2528508019       31.7363772425
  H         7.4548733204        0.9047295854       20.8166705104
  H         8.1871644523        0.6663658601       19.2710418528
  C         6.8655849878        2.3943178447       19.3100701686
  H        10.4462244200        1.0568024014       19.6066095833
  H         9.8699718013        0.4606167831       21.2299326522
  C        11.4357424114        1.8434542960       21.3283948233
  H        10.2578986802        3.1558842637       17.9261570848
  C        10.1622604317        6.0251344173       17.0979965070
  H         0.0620241335        6.0589114950       27.3250838299
  H         1.4131401521        6.7535833616       28.2892246674
  C         0.8761211345        4.8223528718       28.7984704160
  C         4.9363778254       -0.4482087928       32.6013671600
  H         7.2504285514        2.8416096161       18.3985417371
  H         6.5895895508        3.2662476326       19.9725131033
  C         5.5372775865        1.6834982756       18.9709467959
  H        11.1845809202        2.0561559853       22.3417588876
  H        11.6581723783        2.8315551026       20.9164680523
  C        12.6791951273        0.9411225915       21.2195535232
  C        10.1298005535        7.3900841955       16.9812881220
  C        10.3914880247        5.2477998317       15.9093574126
  H         0.0806527245        4.0911109259       28.6031166041
  H         1.7548775485        4.1653815743       28.8849292960
  C         0.5891137573        5.4403187972       30.1353846218
  H         5.3131580833       -1.4831334621       32.6010150791
  C         4.5392050068       -0.0068057518       33.8540165307
  H         4.9074476361        1.5026363203       19.8378433809
  H         5.6806169045        0.7543812586       18.3824004941
  C         4.5862679494        2.4700996893       18.1502595490
  H        12.6539421532        0.3145174849       22.0779361946
  H        12.6766439896        0.3448493502       20.3297164599
  C        14.0080977381        1.7281116153       21.4630156230
  N         9.9001190159        8.2508152003       17.9924907288
  C        10.4990305128        8.0388915420       15.8308070304
  C        10.6851367129        5.8713452396       14.7127509894
  H        10.3740431713        4.1892467310       15.9655486711
  H        -0.0854256117        6.2922398971       30.0946560554
  H         0.2489194885        4.8156543871       30.9475943658
  H         1.5758186775        5.7819242559       30.3492500763
  S         4.2908709491        1.5649454587       34.3706560427
  C         4.4683175336       -1.0657807169       34.9306016801
  H         4.7570877468        3.4579152774       18.3572789146
  H         4.8528806316        2.3051558179       17.1663497527
  C         3.1176086899        2.0926196094       18.3466184259
  H        14.0374178768        2.5577960104       20.7606419047
  H        14.8129156124        1.0484101435       21.3524792361
  C        13.9477419288        2.4581660765       22.8456739863
  S        10.0582639807        9.7777678616       17.4712019330
  N        10.5769233871        9.3845230741       16.0183858692
  C        10.9027937130        7.3522819031       14.6908394700
  H        10.9376850398        5.3040170382       13.8689901873
  C         4.0889307302        0.8221996171       36.0048468364
  N         4.1523920363       -0.5238909949       36.0951303923
  O         4.7864203977       -2.2428662108       34.7471442775
  H         2.4783780312        2.8197484411       17.9041744788
  H         2.8977947495        2.1227345083       19.4338681485
  C         2.8917866103        0.6515551940       17.8536950048
  H        13.0972011569        3.1744677965       22.9931560803
  H        13.7744646525        1.6881513865       23.5646607992
  C        15.2782867456        3.1575225112       23.2379159142
  C        11.2407486403        8.1434192442       13.5360300994
  S         3.7156406750        1.8293434913       37.4305259485
  C         4.0832658963       -1.2887411655       37.3136031970
  H         2.0831581493        0.7027333915       17.1770851359
  H         3.7695505310        0.3684711905       17.2314034369
  C         2.4718094282       -0.4024835194       18.9319387992
  H        15.1827245929        3.8282247250       24.0459733196
  H        15.5570653682        3.8245792495       22.4074415642
  C        16.4155088727        2.1250037882       23.3544272196
  H        10.9359442265        9.1174422481       13.6438411264
  C        11.5933155575        7.8296273396       12.2706705632
  H         3.3561970023       -0.9866934169       37.9928425894
  H         3.7849622344       -2.3541236819       37.1664897587
  C         5.4223780605       -1.3258373169       37.9677967428
  H         1.5387459868       -0.0799820055       19.3836565103
  H         3.1708707652       -0.4797649015       19.7581735669
  C         2.2038981739       -1.7517379155       18.2855336730
  H        16.6736618171        2.1229408194       24.4001664784
  H        16.0400898890        1.1436456074       23.1435041941
  C        17.6912689196        2.4501985672       22.5385883007
  S        11.9903467936        6.2629785637       11.6866795206
  C        11.7412491679        8.9420722282       11.3578238302
  H         5.6921716047       -0.2879273571       38.1417541412
  H         5.3664866203       -1.8231161918       38.9113500670
  H         6.1987910031       -1.8297948703       37.3984398295
  H         1.6316287743       -2.4216305075       18.9560473624
  H         3.1350590282       -2.0695608357       17.8910659329
  H         1.5064587586       -1.7102715319       17.4577667905
  H        18.4513153490        1.7295876465       22.8380371316
  H        18.1035190757        3.4172985263       22.7308422316
  H        17.6729339571        2.3457138910       21.4406341738
  C        12.5517622975        7.0230743937       10.2772018024
  N        12.4557124053        8.3975359826       10.2880942346
  O        11.4160213109       10.1100768947       11.5170958922
  S        13.3540829418        6.3019262223        8.8912947552
  C        12.6874979301        9.2597546761        9.1522714422
  H        12.7086918985       10.3104217878        9.5525402160
  H        13.6640483673        9.0162323867        8.6441909988
  C        11.4916357736        9.2192292142        8.1947513588
  H        11.3188247016        8.1323896600        7.8829195044
  H        10.6762542771        9.4940625124        8.8723387631
  H        11.5294164468        9.8677261415        7.2729168710
  H         4.6291656158        1.5911812927       12.9563773656
  C         4.0112614483        2.4622619490       13.1511060524
  H         4.7250919288        3.2661455401       13.3051547663
  C         3.1554269648        2.6988677034       11.9373792744
  C         3.2357277435        2.3473697979       14.4954181130
  C         4.0008135126        2.9021819302       10.7269489777
  H         2.5924323514        3.6022513601       12.1701674636
  H         2.4443252561        1.8858224450       11.6757767762
  H         2.1627303434        1.9753648816       14.3813815289
  H         3.0599463829        3.2775251489       14.9901778373
  H         3.8658420670        1.6754052369       15.0610091756
  C         4.5350041588        1.6305651205       10.0353673367
  H         3.3526091048        3.4714591025       10.0040692121
  H         4.8769315199        3.5114193988       10.8476786640
  C         5.2709608278        1.8696767203        8.6926219677
  H         3.7679336297        0.8950934180        9.8237163122
  H         5.1375916356        1.0886277267       10.7710209611
  C         6.6062547145        2.6643350997        8.7281614995
  H         4.5919238128        2.3333443830        8.0118660366
  H         5.4354651989        0.9197504803        8.2933673455
  C         7.8756726431        1.9190013579        9.1988620554
  H         6.8805354908        3.0569423448        7.8170684476
  H         6.4205130393        3.5538125985        9.3212044312
  C         9.0985956180        2.8638692350        9.3460846241
  H         8.2514639481        1.1824626805        8.4476532930
  H         7.6138556182        1.3424485343       10.1724847873
  C         8.7490843065        4.2111548584        9.9930348579
  C         9.5284706227        3.5455195737        8.0636347724
  C        10.3093303792        2.1153196132       10.1034646461
  C         9.0278084021        5.3364381726        9.2279785565
  C         8.3265170360        4.6069059808       11.2986222853
  C         9.5458581661        4.9159305584        8.0150313582
  C         9.9366776426        2.9554885056        6.8479043353
  H         9.8689854835        1.4589212568       10.8953704270
  H        10.8441836022        1.4251009632        9.3674040732
  C        11.4264171104        3.0490468221       10.6522202866
  S         8.6332831978        6.7849737413        9.9515351569
  C         8.1891823078        5.9739167836       11.4138715728
  H         8.2418216354        3.8548038238       12.0485351595
  C         9.9702638920        5.6007961131        6.8482452416
  H        10.1010046186        1.8784613019        6.8851287172
  C        10.4077676985        3.6452403036        5.7686650937
  H        10.9424951248        3.8497906060       11.2610433307
  H        11.8785108388        3.4938539090        9.7338278936
  C        12.4754406551        2.3217652501       11.4687611470
  C         7.7711138854        6.6911250869       12.6913024606
  C        10.3945915866        4.9903899470        5.6613823021
  H         9.9210808717        6.6975143855        6.9059327567
  C        10.8461219612        3.2341372259        4.5545648970
  H        13.3213417739        3.0130142847       11.6331385259
  H        12.8476288130        1.4081824914       11.0224544941
  C        12.0409988820        2.0876712617       12.8388112104
  C         7.8407776360        8.0348727486       12.9946926765
  C         7.1777301040        5.8081493791       13.7853276359
  C        10.9353193205        5.6520828392        4.3835212814
  C        11.1589382151        4.3292904896        3.7287874570
  S        10.9895838022        1.6980847925        3.8029910106
  H        11.2813967352        2.7398711491       13.1843700728
  H        11.6253764631        1.0824557152       12.8999758940
  C        13.2411626876        2.1502899581       13.7949431187
  N         8.1436442754        9.0262898976       12.1113146412
  C         7.5466917965        8.5503797198       14.2668985480
  C         7.0476390809        6.1853633384       15.1188162910
  H         6.8846546903        4.8311762497       13.5399525101
  C        12.2054398489        6.4076548146        4.6304105799
  C         9.8008282464        6.4369191025        3.6899526748
  C        11.5534363233        3.9242348543        2.4384093275
  C        11.4307311281        2.5072715105        2.2940436901
  H        13.6005106900        3.1477307199       13.8602465451
  H        14.0579298890        1.5599402355       13.3715678596
  C        12.7875450313        1.6949964677       15.1758490792
  S         7.8478559576       10.4801490020       12.7921151956
  N         7.5982504789        9.9704196769       14.2814041364
  C         7.1990298439        7.7266812877       15.3626867977
  H         6.7261293707        5.4947395657       15.9183687859
  H        12.1263580031        6.7578934965        5.6770612789
  H        12.1349195793        7.2768217301        4.0006329938
  C        13.5911887102        5.6987981166        4.6583749129
  H         9.5624448357        7.2498038235        4.3967746307
  H        10.2905200422        6.8948986886        2.8388359573
  C         8.5227072052        5.6737307092        3.3624459827
  H        11.8889817152        4.6740637111        1.6767005746
  C        11.6851844972        1.7562360527        1.0196271274
  H        11.7166407913        1.9901149123       15.3176609766
  H        12.9648862418        0.5803275369       15.1885792417
  C        13.4455022432        2.4045511008       16.3879034880
  C         6.9455830491        8.3555357731       16.6310191405
  H        13.5135949104        5.0979391373        5.5668497025
  H        13.7151208268        4.9972514825        3.9382790464
  C        14.7721951833        6.6720556119        4.5529917909
  H         8.2944504068        5.1835525216        4.2604214926
  H         8.8600077565        4.8823477176        2.6211784427
  C         7.4125972004        6.6000713103        2.8558709217
  C        11.7623708702        0.3374381411        0.9278822949
  C        11.9983381789        2.4750248434       -0.2640569108
  H        13.1084059115        3.4307516613       16.5036586209
  H        14.5067821132        2.5424278194       16.2192672502
  C        13.0258217054        1.6817177945       17.6761875044
  H         7.0508233219        9.4318663724       16.5270021302
  C         6.5585721311        7.8964577283       17.8367565853
  H        14.5758008318        7.4180911511        5.2423620038
  H        14.9380008633        6.9740104378        3.5176158359
  C        16.0979986470        6.1111471526        4.8958747976
  H         7.2710412664        7.3998850227        3.6054453882
  H         7.6744541878        7.0210831796        1.8580923425
  C         6.1326612752        5.7958769107        2.7000756088
  N        11.5779829648       -0.5557606415        1.9878328124
  C        12.0121644212       -0.3300654670       -0.2784974145
  C        12.0863666146        1.7578430961       -1.4758052603
  H        11.9153512604        3.5321954893       -0.2886110685
  H        12.0742455851        1.2462162826       17.6627016046
  H        12.9779428503        2.3471202946       18.4645206239
  H        13.7499808368        0.9421095306       17.8286635653
  S         6.2062887654        6.3216690378       18.4378611736
  C         6.5832728349        8.9201640822       18.9128240173
  H        16.1143746320        5.1485222835        4.4326865240
  H        16.8662019489        6.7203540649        4.3898870499
  C        16.2553858267        5.8237164023        6.3557697452
  H         5.6986109579        5.5701520129        3.6782056218
  H         6.3158445336        4.8848409045        2.1241211707
  C         5.1546450879        6.4588878792        1.6844496961
  S        11.8266793596       -2.0209097693        1.4688344151
  N        12.1241142624       -1.6604257336       -0.0688451618
  C        12.1099169355        0.2692867332       -1.5249718560
  H        12.2605086900        2.4303940940       -2.3195936488
  C         6.2047893932        7.0142299347       20.0241174031
  N         6.1759043142        8.3258749203       20.0766926070
  O         6.8226039940       10.1745957346       18.7653056391
  H        16.1784637317        6.8373789436        6.8725009270
  H        15.4163004033        5.2315191244        6.7220829426
  C        17.5862100035        5.0781610186        6.7286657558
  H         5.7046949165        6.7194483000        0.8017049098
  H         4.3324878239        5.7452567266        1.5245767575
  C         4.4040734282        7.6579524818        2.1897319831
  C        12.3219856892       -0.5510077329       -2.6920510508
  S         5.9726656354        6.1266970227       21.4989474631
  C         6.0717517013        9.0718015414       21.3146870252
  H        17.4716862385        4.3867719157        7.4779781156
  H        18.0279100046        4.5566112193        5.9041515848
  C        18.7212670482        6.0256557272        7.2043405068
  H         4.7893175101        8.0173472498        3.0699013713
  H         3.4290512268        7.3297374867        2.4551397982
  C         4.1730968779        8.7369206327        1.1693370049
  H        12.1627028959       -1.5952297693       -2.5677302457
  C        12.7238645039       -0.3031217723       -3.9761575719
  H         5.3563919126        8.6073125983       22.0299705427
  H         5.5315703854        9.9814462132       20.9040655784
  C         7.3380215117        9.3016502441       22.0821008814
  H        19.0337710333        5.7537602552        8.2138473177
  H        18.1918587640        6.9322110958        7.2403711999
  C        19.8990883780        6.1443962854        6.2478994348
  H         5.0948482998        9.2676346841        1.0465339609
  H         3.8613562454        8.2942836277        0.1804940708
  C         3.2938542318        9.8747201158        1.7250776763
  S        13.3438540087        1.2192233012       -4.5343685075
  C        12.8095317339       -1.4565341002       -4.9166143536
  H         7.9259716180       10.0203832628       21.5387636583
  H         7.8719497828        8.3209657996       22.1778172509
  H         7.0933876692        9.6604180488       23.0351468778
  H        20.8411678434        6.6219160326        6.7197975461
  H        20.2021032819        5.1991234384        5.7987849303
  H        19.6773139131        6.7149416933        5.2659288976
  H         3.9070229548       10.7128659432        1.3316342056
  H         2.2842865785        9.8981651434        1.2618977586
  H         3.1549812437       10.0135094136        2.7771911100
  C        13.6724586723        0.4020418110       -6.0415719530
  N        13.4848162666       -0.9756936130       -6.0290150727
  O        12.6656717524       -2.6525154906       -4.5596866477
  S        14.2422686695        1.1298170119       -7.5582790262
  C        13.6763514897       -1.9458529973       -7.0555547817
  H        13.9148067827       -2.9230990175       -6.5694037513
  H        14.5822084709       -1.6261056001       -7.5750556893
  C        12.3849675090       -2.0103425800       -7.9857086828
  H        12.4544057887       -1.3416862683       -8.8779269216
  H        11.4248204295       -1.7560504824       -7.5033935188
  H        12.4112763188       -2.9912200354       -8.3834235656
