352
 i =   109300, time =    54650.000, E =        98.5963381674
  H         9.9794282457        4.9995960937       31.7801182162
  C        10.4128620170        5.9036997825       32.2190744347
  H         9.6605484001        6.6706768740       32.0683278619
  C        11.7341496746        6.0650357965       31.4546026686
  C        10.6186313573        5.5727664308       33.6806759193
  C        11.5411670571        6.6146219434       30.0385069225
  H        12.3876816661        6.7702930637       31.8720778988
  H        12.3200956074        5.1719166066       31.4669650636
  H        11.7241109035        5.6568235392       33.9020032290
  H        10.0933870312        6.2165798132       34.3302760145
  H        10.3115465301        4.5557063692       33.8518810804
  C        10.4020020674        5.9532538849       29.2452945551
  H        12.4876857716        6.6344530426       29.5063685472
  H        11.2891929562        7.6850081305       30.2346132937
  C        10.7632470160        5.9567054153       27.7224356537
  H        10.5090691446        4.8560095165       29.5964952672
  H         9.4788851849        6.3260621964       29.5207656830
  C         9.7745495727        5.1323174469       26.8654777272
  H        11.6881599235        5.4715430991       27.6617273287
  H        10.9771859813        6.9760699190       27.3759161069
  C         8.6914808311        6.0486279735       26.2502044430
  H        10.2806055951        4.4431169381       26.1141217499
  H         9.3384064188        4.4811794377       27.5453012985
  C         7.4641551496        5.3803827889       25.5884612564
  H         8.2420457604        6.7551620192       27.0270341590
  H         9.0980049261        6.7697453208       25.4663827259
  C         7.1628380056        4.1108291593       26.2975130795
  C         7.9324837965        4.6407013973       24.3808102008
  C         6.2480417103        6.3117319109       25.2541151052
  C         7.4302969533        2.9757963626       25.5389698864
  C         6.5510569092        3.7852532083       27.5618526749
  C         7.9829068374        3.2890172247       24.3613660682
  C         8.2489054215        5.2074894119       23.1471268924
  H         6.5297060012        6.9227510482       24.3809918080
  H         5.9859708148        6.9438315834       26.0863515907
  C         4.9734146260        5.5195673125       24.9007137141
  S         6.9015284838        1.5532594040       26.2016016816
  C         6.4708022932        2.4207622540       27.6466100313
  H         6.3425573997        4.5487428266       28.2943237645
  C         8.3670585293        2.5992208782       23.2378827078
  H         8.1606099793        6.2526067791       23.0753789898
  C         8.6013501876        4.4583668126       22.0590815447
  H         5.2281561411        4.8490631031       24.0612001726
  H         4.7653618903        4.9454463863       25.8092874756
  C         3.6691858620        6.2443797415       24.5029235165
  C         6.0931213445        1.7212737622       28.9453820974
  C         8.6851061767        3.1167697253       22.0092396631
  H         8.3602656988        1.4900303221       23.1978235846
  C         9.0448088500        4.7735265592       20.7890347641
  H         3.1606114250        5.6906130169       23.7586172935
  H         3.8983088672        7.1083818804       23.8195239637
  C         2.7671761949        6.5340665853       25.7279295999
  C         6.1269269554        0.2823841801       29.1747515639
  C         5.6072909567        2.4664724307       30.1442353724
  C         9.0383825135        2.3408991049       20.6645636593
  C         9.2486137431        3.6118891197       19.9320748360
  S         9.4102134757        6.2337603008       19.9273206304
  H         1.9159888968        7.1341731095       25.3635305775
  H         3.4462806898        7.2225302550       26.2936389269
  C         2.1648145659        5.4036285261       26.5637625035
  N         6.6190667686       -0.5583467460       28.2124513914
  C         5.8014477915       -0.3743421708       30.3758307508
  C         5.2043135945        1.8224007125       31.3293871330
  H         5.5460785658        3.5222696730       30.1054526544
  C         7.9511503668        1.4629183845       19.9907973864
  C        10.3373586005        1.5132820304       20.9052558195
  C         9.6872501991        4.0101984424       18.6852345965
  C         9.7434444351        5.3464879891       18.5107900833
  H         1.5440453254        4.6682724465       25.9813597633
  H         2.9634847319        4.7787667801       26.9783227089
  C         1.2877114901        5.9552411754       27.6952690166
  S         6.6497350780       -2.0930042648       28.7217544177
  N         6.0274217547       -1.7146213947       30.2300404286
  C         5.4164900363        0.3468713025       31.5276577309
  H         4.8282334477        2.3921171689       32.1499079050
  H         7.4278059164        0.8396539977       20.8056085185
  H         8.4391037726        0.8969568024       19.2426471826
  C         6.8190793773        2.2091146191       19.3621192390
  H        10.5693529897        0.8625178007       20.0716915153
  H        10.3252829469        0.8496453845       21.7559995793
  C        11.5212282197        2.4095498571       21.0903276388
  H        10.0043171415        3.2617906793       17.9783224097
  C        10.0979801697        6.0936399642       17.2551204011
  H         0.5223726907        5.1763180701       28.0286117092
  H         0.5898595691        6.6822181190       27.2528910099
  C         2.0117217500        6.4765744838       28.9636393258
  C         5.2336376723       -0.4479035959       32.6745264541
  H         7.1597259361        2.7626140778       18.4755111502
  H         6.2911566469        2.8548305511       19.9746111216
  C         5.6851327676        1.2644033257       18.9594325876
  H        11.3680343555        3.1585041874       21.8124064946
  H        11.6432726996        2.9549214126       20.1827657322
  C        12.7637670633        1.6132274329       21.4920499531
  C        10.1698708851        7.4984536552       17.1684170054
  C        10.3927079733        5.3196228602       15.9638900453
  H         2.2277613924        7.4413258502       28.6769719418
  H         1.2889706577        6.2926958904       29.7084523466
  C         3.2748939448        5.8476193751       29.4267492385
  H         5.5772360473       -1.4968761401       32.5496941642
  C         4.9253081304       -0.0691686906       33.9934889970
  H         5.2373826757        0.7773481824       19.8689566624
  H         6.0606090869        0.4128678533       18.4332849983
  C         4.6346481967        2.1629218946       18.1862831742
  H        12.6466906863        1.0104692617       22.4133809029
  H        12.8925237769        0.9175182960       20.7069267935
  C        13.9526978364        2.5547700719       21.4621981210
  N         9.9906186762        8.4384465648       18.1893288183
  C        10.4829285008        8.1374573654       15.9963263660
  C        10.6390507618        5.9876503864       14.7428197243
  H        10.1851069860        4.2837443402       16.0208805287
  H         3.4225465843        6.0816988499       30.5104964911
  H         3.3197115228        4.7984555470       29.1537584765
  H         4.1774835737        6.2709372770       28.9930598615
  S         4.5308562535        1.4837741957       34.6354470234
  C         4.9318895152       -1.2041314701       34.9955474928
  H         4.6241893068        3.1699665365       18.6313976598
  H         5.0001767780        2.3935554698       17.1726041405
  C         3.2570315530        1.5074981897       18.0456598247
  H        13.7507786009        3.3492601572       22.2205691401
  H        14.1121429180        3.0421082266       20.5463836122
  C        15.2060967247        1.7899192165       21.7555214575
  S        10.1363525249        9.9293709822       17.6302803020
  N        10.6209226312        9.5041379108       16.1221703090
  C        10.6917612717        7.4202998542       14.7571781854
  H        10.6733686606        5.4279639661       13.7841304760
  C         4.2455437276        0.6395453012       36.1595076134
  N         4.4012128893       -0.7393630687       36.1574600502
  O         5.1050483522       -2.3833179826       34.7365644641
  H         2.7446716797        1.9744695436       17.1246145576
  H         2.7262980434        1.6213244375       19.0029810373
  C         3.6014748865        0.0112914343       17.6521404361
  H        15.0982888604        0.7241521818       21.9005362449
  H        15.7606047497        1.8047154405       20.7666485045
  C        16.0759797541        2.4815054849       22.8046284591
  C        10.8428883222        8.1793743660       13.5465886172
  S         3.8636382314        1.4908486289       37.6309437118
  C         4.3289496812       -1.6055957403       37.3436175122
  H         4.4857629810        0.0139537445       17.0211991236
  H         3.9271147105       -0.6039479097       18.5181994118
  C         2.4182387584       -0.5440974339       16.8907836755
  H        15.7052243268        2.1355750073       23.7503422750
  H        15.9702507286        3.5494029374       22.7188649493
  C        17.4986032156        2.1459823304       22.6482683864
  H        10.3891083930        9.1578966234       13.6781113161
  C        11.2960700216        7.9739109200       12.2637017260
  H         3.4864952620       -1.2974855452       37.9212199951
  H         4.0186195628       -2.6340288223       37.0514343436
  C         5.6690981800       -1.6190932778       37.9753288250
  H         2.1771546557       -0.0498012215       15.9302489143
  H         1.4413343729       -0.4109242412       17.4198293977
  C         2.4776343084       -2.1589332071       16.7228671397
  H        17.4246138162        1.1330929856       22.1584796128
  H        18.0677999217        2.7809763049       21.9784967963
  C        18.1616403506        1.8072946820       24.0044646430
  S        12.0771773687        6.5675106919       11.6816048807
  C        11.2770656746        9.1757619918       11.3145882010
  H         5.6261375553       -1.7851641445       39.0570901863
  H         6.2485459455       -2.3756631905       37.5238793020
  H         6.1511851258       -0.6425510136       37.8231892019
  H         1.6820965906       -2.6956988995       17.2512707949
  H         3.5096134778       -2.4986131853       16.8722393830
  H         2.3009978943       -2.2529410070       15.6674598457
  H        19.1825491041        1.5075692204       23.8105106874
  H        17.6598018135        0.9464159490       24.5068155731
  H        18.2534153329        2.6077674596       24.7159349553
  C        12.1876318133        7.4416204186       10.1340696411
  N        11.8925337639        8.7779420484       10.1736082520
  O        10.8719422660       10.3489108688       11.6551281118
  S        12.5338561646        6.7598851922        8.5323795441
  C        11.8031807506        9.6725326416        8.9838622825
  H        11.6388381576       10.6740896523        9.4249645670
  H        12.8385736888        9.8535310595        8.5000515116
  C        10.5920486662        9.6361341507        8.0941563209
  H         9.7327204742        9.1132825879        8.5493318548
  H        10.3092087556       10.6378101383        7.9031672936
  H        10.9208259755        9.1433511020        7.1604463714
  H         2.6222203478        3.9827349367       12.2978942227
  C         3.0321574117        2.9848722919       12.4532760558
  H         2.4844971561        2.3514221211       11.7293266750
  C         4.4910327299        3.0893572476       12.0863691420
  C         2.9270861803        2.5584921346       13.9393272004
  C         4.5137752538        3.2250554413       10.5755019972
  H         4.9443656425        2.1628134972       12.4449830856
  H         4.9271220111        3.9282190822       12.5674083585
  H         2.7395673169        3.3978180077       14.6240353241
  H         3.8204448885        1.9828477835       14.3057090467
  H         2.0574121597        1.9259231720       14.0564079120
  C         4.7278655819        1.8772191350        9.8615906849
  H         3.4683988887        3.5155189712       10.2608282131
  H         5.2200550412        4.0042332857       10.2284784012
  C         5.4202126886        2.0341061331        8.4706503283
  H         3.8590438257        1.2289032854        9.7642394010
  H         5.4214165025        1.3128045186       10.4437074196
  C         6.8402232852        2.6721422688        8.3262308216
  H         4.8039415064        2.4344697635        7.6765434668
  H         5.6127360113        1.0823041091        8.1121028174
  C         7.9944665316        1.9534729140        8.9616206669
  H         6.9878903895        2.8570294266        7.2554430387
  H         6.7392786495        3.6127408302        8.7251147294
  C         9.2044545071        2.8362998323        9.2244998707
  H         8.2878270084        1.1804537673        8.3035156573
  H         7.6046147683        1.5120221526        9.8601799156
  C         8.7931092863        4.1565078730        9.9750958857
  C         9.5056340470        3.6125860902        8.0250842556
  C        10.3073723064        2.2184344175       10.0331583939
  C         9.0462028411        5.2634014396        9.2278529084
  C         8.2258207965        4.4525273718       11.2410077976
  C         9.5007902061        4.9238514700        7.9873740759
  C        10.0104697909        2.9696743921        6.8737468099
  H         9.9396838736        2.1075448505       11.0162059924
  H        10.6671780037        1.1722267715        9.6626872729
  C        11.5141659098        3.0339044378       10.0033094904
  S         8.5691389240        6.6589186563       10.0790901222
  C         8.1837797438        5.8189710985       11.4603649078
  H         8.1804815529        3.6845816880       11.9927519135
  C         9.8823657845        5.5744659726        6.8748025359
  H        10.2853959272        1.9103790065        6.7843158629
  C        10.2992540843        3.6350243411        5.7549424941
  H        11.3618707861        4.0073506983       10.3685613689
  H        11.9613071184        3.0797238340        9.0048645139
  C        12.4201380705        2.5045387892       11.0136782665
  C         7.7373820733        6.5566203383       12.7456002921
  C        10.2701843495        4.9701083456        5.6906893159
  H         9.8068110115        6.6382780769        6.9373664518
  C        10.6907924339        3.2766795453        4.4621440561
  H        13.1400237466        3.2535982047       10.8610777467
  H        12.8316923036        1.4868651141       10.7772272674
  C        11.9445796145        2.4823116389       12.4396680646
  C         7.7575629769        7.9690671318       12.9533724610
  C         7.4522787471        5.7719526152       13.9371262924
  C        10.7799631196        5.6423244933        4.3941861148
  C        10.9546166945        4.3121584461        3.6805513675
  S        10.9010882179        1.7174836246        3.6957318123
  H        11.2913691060        3.3048141615       12.5165104532
  H        11.3729540722        1.5458429018       12.6031598282
  C        13.1099564788        2.4288558314       13.5621077137
  N         8.0370568362        8.9652484029       12.0229517093
  C         7.4774415970        8.6004142973       14.1706649181
  C         7.2282589062        6.3572440932       15.1448788972
  H         7.4537170796        4.6792409870       13.8532643758
  C        12.2029627897        6.2337904038        4.4092022041
  C         9.7317629213        6.5552501607        3.5466738763
  C        11.4704050219        3.8513056061        2.4216679351
  C        11.5054768155        2.4715711724        2.3198975682
  H        13.8301608021        3.3133753548       13.5170845089
  H        13.6767380364        1.5804778465       13.2782863591
  C        12.6183503732        2.2878514970       14.9806295728
  S         7.7668387554       10.4262993440       12.5765637389
  N         7.4641986785        9.9883650540       14.1301559117
  C         7.2058652983        7.8148632462       15.3369980343
  H         6.9220456871        5.6996800933       15.9789346810
  H        12.2908074308        7.1295487358        5.0526245582
  H        12.4924184393        6.4391741448        3.3730165628
  C        13.2763271256        5.3607330877        5.1292015505
  H         9.2632804997        7.3987063875        4.0924496938
  H        10.2309967284        6.9570343892        2.7011071770
  C         8.4555321272        5.7033629698        3.1134078890
  H        11.8197667967        4.5940447682        1.6685978427
  C        11.9168343640        1.6699939650        1.1332268155
  H        12.0151219003        3.1223043841       15.2043263937
  H        11.9533727989        1.4417793551       15.1793333115
  C        13.7390641457        2.2358228803       15.9066420055
  C         6.9898832106        8.4933350624       16.5661967984
  H        12.9204408386        5.0172408986        6.1095564664
  H        13.3862321344        4.4015057603        4.6366410562
  C        14.7137107531        6.0252286158        5.2433881124
  H         8.0558897831        5.0806046854        3.9085192392
  H         8.6520840348        5.0149041871        2.3094018044
  C         7.2850943138        6.6411963995        2.7142312890
  C        11.8946083185        0.2613052562        0.9495598000
  C        12.0386138810        2.3754006650       -0.1759609054
  H        14.2526276808        3.1438139052       15.6779456445
  H        14.3702121570        1.5092702115       15.5358218030
  C        13.4600355813        2.1169052844       17.4882441883
  H         7.2047730933        9.5661535365       16.5422341785
  C         6.6584562389        7.9379073901       17.7809468798
  H        14.7095542136        7.0932561084        5.3033118607
  H        15.2988074961        5.8461968370        4.3553412970
  C        15.4744531409        5.4088530692        6.4572303698
  H         7.0128015256        7.2980163936        3.4928682938
  H         7.5673178788        7.2172384809        1.7984724224
  C         6.1055546499        5.7858168213        2.2905724443
  N        11.5665624157       -0.6897958415        1.9671542558
  C        12.1418937857       -0.4070347527       -0.2536032418
  C        12.2106804569        1.7328635534       -1.4047846456
  H        12.1308683797        3.4581386095       -0.1556943021
  H        14.0332563768        2.8016607573       18.0997997339
  H        13.4483817127        1.0195930615       17.7683249567
  H        12.3995630466        2.4387898432       17.6503104530
  S         6.1570213775        6.3373004738       18.1654687350
  C         6.7053226331        8.8252304272       18.9344481335
  H        15.1613663895        5.8921269931        7.4643343835
  H        15.1140607660        4.3489218857        6.5873472699
  C        16.9230460966        5.6097155388        6.2358157498
  H         6.0032572695        4.9569997807        2.9797963132
  H         6.3609260731        5.2369548257        1.3483846633
  C         4.7211266229        6.5620292933        2.1139292605
  S        11.6782744105       -2.2091926223        1.3811724922
  N        12.0453313198       -1.8262085687       -0.1393889469
  C        12.4960248900        0.2981239341       -1.4126516344
  H        12.1578864072        2.3098673425       -2.3319826227
  C         6.0186316380        6.9214186320       19.8460163228
  N         6.2500853072        8.2390212328       20.0620691935
  O         7.0793609747        9.9708661764       18.8507091284
  H        17.0965168983        4.8762970109        5.4795823263
  H        17.1293912266        6.4942115858        5.7464083626
  C        17.7571919855        5.2252655420        7.4871971465
  H         3.8208838917        5.8716342467        2.1545458958
  H         4.6009130182        7.3387407017        2.8474548915
  C         4.7004750188        7.3456159032        0.7374196196
  C        12.7289641646       -0.5399999222       -2.5495357924
  S         5.4663680650        6.0917992062       21.3737731478
  C         6.1894071441        9.0541252647       21.3060902621
  H        17.0667037443        5.1653734218        8.3662377082
  H        18.1356306038        4.1949274819        7.4367102094
  C        18.9442056409        6.1245593650        7.7984921219
  H         4.4620220038        6.6685094385       -0.0989931353
  H         5.6226442951        7.8234679791        0.3913216877
  C         3.4777858393        8.2200289764        0.5865307320
  H        12.4360086195       -1.5687583237       -2.4053322935
  C        13.3189815912       -0.3423209894       -3.7569100557
  H         5.2773645877        8.7385632225       21.7897327798
  H         6.0452163097       10.1383087831       21.0884319844
  C         7.4906864914        8.8179757180       22.0475171285
  H        19.4095060239        5.7631880907        8.7370636598
  H        18.6742904955        7.1910090221        8.0452131473
  C        19.9738497331        6.2358044431        6.7170714466
  H         3.2282218721        8.2658288819       -0.5017587674
  H         2.6317842063        7.8383749544        1.0617891642
  C         3.7911791056        9.6228212721        1.1480704755
  S        13.8452500791        1.1490224829       -4.3457149479
  C        13.4031844060       -1.4421268666       -4.7506460835
  H         8.0925162631        8.0189523277       21.5808829860
  H         7.2495701980        8.4557667081       23.0674862180
  H         8.1136004508        9.6829313044       21.9648879371
  H        19.4181453875        6.7974910819        5.9284403448
  H        20.8345815493        6.7657546550        7.1207351884
  H        20.2818883105        5.2416858035        6.3440528691
  H         2.9763093564       10.0656405351        1.7982150347
  H         4.7264222960        9.8749782360        1.6159060022
  H         3.7956205631       10.2796000378        0.2615788285
  C        14.1811548106        0.3428346577       -5.8677094146
  N        13.9723217760       -0.9988046122       -5.8529358082
  O        13.1444559688       -2.6226988077       -4.5181755156
  S        14.8153888579        1.2146700899       -7.3447280444
  C        14.0006260472       -1.8814904636       -6.9726245902
  H        14.4305589631       -2.7834925141       -6.6271440260
  H        14.6700467039       -1.6167264307       -7.8836538008
  C        12.6294104524       -2.1892350487       -7.6543657704
  H        12.8543687680       -3.1428916495       -8.2359704260
  H        12.2425922577       -1.3072581276       -8.2033277996
  H        11.7855908758       -2.4520101318       -6.9371558680
