352
 i =    33000, time =    16500.000, E =        98.5142818689
  H        10.1443598462        4.7882117563       32.2630446385
  C        10.6269443286        5.6586593133       32.6276899445
  H         9.8187673966        6.1157561916       33.2267233833
  C        11.1131663496        6.4377968424       31.3503902648
  C        11.7039843353        5.2869574763       33.5203073882
  C        11.2459080503        5.6042915187       30.1412836235
  H        10.4179088736        7.2089143631       31.0787773038
  H        12.0397056473        6.8691147388       31.5128669079
  H        11.3192973563        4.8413085905       34.4755021169
  H        12.3237002872        4.5867551808       33.0555921932
  H        12.1616068076        6.1255270116       33.9259175740
  C        10.0528873687        5.6978141978       29.1139692989
  H        11.1590745503        4.5735832501       30.4736204819
  H        12.2190133088        5.7113930029       29.5737186954
  C        10.5688800431        5.7129777821       27.5920392333
  H         9.3434572133        4.8230654007       29.2505017367
  H         9.4369209644        6.6317231772       29.1536062456
  C         9.6320948085        4.9886466756       26.7613246176
  H        11.4916651945        5.1006895546       27.4419880972
  H        10.5772351636        6.7141753922       27.1139426439
  C         8.3990923631        5.8506220234       26.5154373320
  H        10.0707924025        4.6118495807       25.8741410751
  H         9.3799695911        4.0687292782       27.3452226684
  C         7.2139357575        5.1251145310       25.7943017821
  H         7.9568140669        6.2125350826       27.3707637049
  H         8.7142737681        6.6757786804       25.8118982656
  C         6.7873155552        3.8235984416       26.4495781402
  C         7.5357479209        4.4832965918       24.4995820223
  C         5.9982455832        6.0665216046       25.8035875600
  C         6.9650010471        2.7280673441       25.6717969784
  C         6.3041200468        3.5499595469       27.7278230642
  C         7.4574170325        3.1309515929       24.4115230111
  C         8.0206998153        5.0274338897       23.3088015664
  H         6.1749219122        7.0294387602       25.4535708462
  H         5.7299903812        6.2762657379       26.8720179196
  C         4.8132498720        5.4304316431       25.0329245790
  S         6.5734397730        1.2048689769       26.4830644140
  C         6.2675908699        2.1790371129       27.9165492814
  H         6.1334403593        4.3126021566       28.4604250425
  C         7.7468127036        2.4763015567       23.2369725291
  H         8.0792541375        6.1182357112       23.3058696593
  C         8.2992324722        4.3696245818       22.1175769186
  H         5.0325751078        5.3462795565       23.9912933129
  H         4.5970458703        4.4339511394       25.3409702863
  C         3.4619430880        6.1207145530       25.1531017320
  C         5.8969287905        1.3968781153       29.1561185633
  C         8.1964060897        3.0637078814       22.0326158851
  H         7.5138505065        1.4411374045       23.2429367867
  C         8.7421495365        4.6772722652       20.8548507487
  H         2.7039639363        5.6021955040       24.6029624350
  H         3.4658121606        7.1139407235       24.6729607451
  C         2.9499575382        6.2880030006       26.5905980092
  C         5.9107748267       -0.0054355162       29.3594541823
  C         5.4560337288        2.1748726555       30.3568828242
  C         8.6259607664        2.2442116369       20.7727479499
  C         8.8442308153        3.5708250432       20.0356480829
  S         9.1603711607        6.1645868674       20.0492383118
  H         2.0446399468        6.8908417934       26.5509739695
  H         3.6462446803        6.9058175872       27.1751484201
  C         2.6359748847        4.8861457749       27.2060204561
  N         6.2218969474       -0.9801930036       28.4389634365
  C         5.6361732143       -0.5950442342       30.6215352102
  C         5.2210416827        1.6219263457       31.6111224110
  H         5.3360868545        3.2731230448       30.1747574110
  C         7.4055492745        1.3929661091       20.1950176781
  C         9.9611335486        1.3993775729       20.8834724461
  C         9.0761665039        3.9515812880       18.6858085711
  C         9.4261330296        5.2674042895       18.6003788541
  H         2.1715461320        4.2175936080       26.4689878562
  H         3.5757240683        4.3502474248       27.5180525916
  C         1.5231679323        4.9968726525       28.1762227940
  S         6.4387909996       -2.4264782542       29.1800642661
  N         5.9871800223       -1.9464755734       30.7240909612
  C         5.2417054955        0.1686659619       31.8135682346
  H         5.0626119339        2.2974881692       32.4184917163
  H         7.3183150443        0.6650540965       21.0134827094
  H         7.7038446852        1.0588877228       19.1876892325
  C         6.1614599657        2.2336779705       19.8419767227
  H        10.1287884948        1.0445406155       19.8280166253
  H         9.8027159195        0.5455463930       21.5215970507
  C        11.2088935640        2.2396987139       21.4216750557
  H         9.0641492580        3.3567429148       17.8785660929
  C         9.8091586273        5.9121588082       17.3001060171
  H         1.1704823069        3.9785839455       28.4529624098
  H         0.6629731675        5.5932561187       27.7787665236
  C         2.1537703481        5.4825696796       29.4648514238
  C         5.1098568796       -0.5066944804       33.1080460497
  H         6.5044432620        3.0787355167       19.3041059374
  H         5.7354190774        2.5803392016       20.7822343717
  C         5.2861038749        1.3604435903       18.9592651377
  H        10.9566986433        2.8383493406       22.3300630316
  H        11.4620294254        3.0927842525       20.7516101105
  C        12.5550575300        1.4941336189       21.6401263848
  C         9.8841245175        7.3297426703       17.0710121938
  C        10.0231465618        5.1319207421       16.0277087466
  H         3.1323682169        4.9926893518       29.5351109495
  H         2.2548242855        6.5361422174       29.4121362278
  C         1.3264931933        5.2810126597       30.8293830239
  H         5.1248550446       -1.5477218441       32.9927587850
  C         4.8293814963       -0.0715355620       34.3573133060
  H         5.4470319895        0.3937518030       19.3076497591
  H         5.6933041560        1.1688792228       17.9667168998
  C         3.8326259901        1.7629702679       18.8899870205
  H        12.7919484478        1.4374731151       22.7353927636
  H        12.5494182812        0.4717555941       21.1701526716
  C        13.7913847614        2.1586282249       20.9276174588
  N         9.5895296147        8.3098503925       17.9900147824
  C        10.0775363708        7.9542234053       15.8517545229
  C        10.2437040558        5.7362021018       14.8098606472
  H        10.1731443531        4.0554332713       16.1475511556
  H         1.8113872526        5.7729203910       31.6741477793
  H         0.4692777319        5.8915883554       30.6838905108
  H         1.1036648147        4.2906309771       31.0323317490
  S         4.5806189123        1.5061871424       35.0015514575
  C         4.8251380204       -1.1196824289       35.4323862240
  H         3.6420012558        2.6033664626       19.5826544652
  H         3.5911084798        2.1532362071       17.9219683398
  C         2.9486669291        0.6188081192       19.3644934524
  H        13.6730307256        3.2166704233       20.9243694063
  H        13.7237036670        1.8502379617       19.8768451955
  C        15.1142194058        1.7074827098       21.5970087537
  S         9.9556442374        9.8017459647       17.4186825504
  N        10.3051200400        9.3304266447       15.9048466638
  C        10.2086198743        7.2084015790       14.6671763163
  H        10.2333893526        5.1258588168       13.9407954149
  C         4.4547708827        0.7500108766       36.5916765850
  N         4.4858656049       -0.5576632187       36.5772241443
  O         4.9451157300       -2.2520180720       35.1647069902
  H         2.0488266996        1.1217541221       19.6647469545
  H         3.4426127802        0.2207601288       20.2422062523
  C         2.4851669722       -0.3326756769       18.1996422983
  H        15.0551934013        0.6072437102       21.6981439652
  H        15.9163278258        1.8538798655       20.9080685139
  C        15.4461482045        2.5682128294       22.7794161247
  C        10.5845416790        7.9770581131       13.5140375762
  S         3.9471941743        1.5378777782       38.0622950392
  C         4.4321343823       -1.3227740802       37.7924796377
  H         1.6929095930        0.1525332068       17.6531944707
  H         3.2045179385       -0.6756801738       17.4617389770
  C         1.9963768411       -1.7204710615       18.7737559201
  H        14.5723052958        2.7074929219       23.4585594312
  H        15.6010653490        3.5871673554       22.4669165560
  C        16.6055698885        2.0256072343       23.6384181075
  H        10.2459878681        9.0385374241       13.5320001426
  C        11.2000617167        7.5449577685       12.3667043438
  H         3.7529571710       -0.8293556452       38.4539180406
  H         4.1999065659       -2.4022801829       37.6855333927
  C         5.8542125082       -1.1971886333       38.4183121783
  H         1.2089490403       -1.3987648249       19.4906206825
  H         2.6808237624       -2.2350948364       19.3921293626
  C         1.3227078917       -2.6800963406       17.8243757098
  H        16.7175248955        2.7297868897       24.4269989971
  H        16.3118117781        1.0299923340       24.0609355353
  C        17.9223991448        1.9261282104       22.9036380597
  S        11.7841259924        5.9125487833       12.0199557647
  C        11.4364107220        8.5350891510       11.2638883770
  H         5.9363696194       -1.6001237025       39.4614109261
  H         6.5600588323       -1.8864413062       37.9034760440
  H         6.1660047383       -0.1684744381       38.3539390365
  H         0.6708735518       -2.0909999492       17.2288409333
  H         0.7597935217       -3.5246567008       18.2900760018
  H         2.1309542452       -3.0776180922       17.2681310444
  H        17.8035507763        1.3948777213       22.0143936541
  H        18.5190379832        1.3392398994       23.6028472870
  H        18.4518673469        2.8427900274       22.6055455783
  C        12.2950260242        6.6195340006       10.4730181191
  N        12.0132361944        7.9450851218       10.2429873230
  O        11.0865769011        9.7276905314       11.3544248826
  S        12.9526416329        5.7654612913        9.0682335713
  C        12.3773487393        8.6592187340        8.9905005343
  H        12.4552154407        9.6828019393        9.1036724610
  H        13.4026101304        8.3571124209        8.7253934312
  C        11.3320763190        8.4254935444        7.8520671752
  H        10.7497224629        7.5198123577        7.9876072269
  H        10.5380078557        9.1984134257        7.9054880134
  H        11.8290855877        8.4634279436        6.9150845418
  H         3.3355492948        1.0207458491       13.2379211184
  C         3.7664774751        1.3018672165       12.2992066886
  H         3.9409019857        0.3402283085       11.8454558845
  C         2.7708773994        1.9998138885       11.3915186795
  C         5.0769727589        2.0711266610       12.7386440131
  C         3.3897780535        2.3827826924       10.0159526223
  H         2.4927345680        2.9846500285       11.8856950532
  H         1.8042908182        1.5283667897       11.2114467438
  H         5.7344819799        1.4538431629       13.3227449542
  H         4.7590993927        2.9473585940       13.3335435878
  H         5.6857606185        2.3411162232       11.8566594682
  C         4.2989408801        1.2742002804        9.4562027903
  H         2.6071839547        2.7059920675        9.3588561437
  H         3.9645065704        3.2537978201       10.0867274955
  C         5.0340559902        1.6271880611        8.1748945430
  H         3.8020755599        0.3306048533        9.4282150409
  H         4.9941032438        1.1491210434       10.1750919018
  C         6.2428078385        2.5213405516        8.5425538139
  H         4.3558850402        2.1395455326        7.5031906468
  H         5.3072537000        0.7576912374        7.5861940656
  C         7.4686739581        1.7813770076        9.2322510163
  H         6.5167728994        3.0961294344        7.7059024550
  H         5.9138928481        3.2497701383        9.2399759980
  C         8.7420579141        2.6496846856        9.4772652694
  H         7.6968072731        0.9223760314        8.5856859221
  H         7.2627497938        1.2361395393       10.1666231156
  C         8.3830160231        4.0251254118       10.1473659241
  C         9.1296678056        3.3139232587        8.2334834371
  C         9.9963896779        1.9000012928       10.1813616231
  C         8.5841104788        5.1384428009        9.2950664083
  C         7.8875018757        4.4659728177       11.3524426269
  C         9.0098441122        4.6393174168        8.0734373153
  C         9.6217786224        2.6835245641        7.0807378947
  H         9.5963120841        1.1872049284       10.9105499805
  H        10.5493445525        1.3080000035        9.5390066668
  C        11.1013829133        2.8247936629       10.9087539960
  S         8.3917946523        6.7087333162       10.0788410027
  C         7.8365305768        5.8370591979       11.4532942398
  H         7.5594313869        3.7744980409       12.1320263004
  C         9.4504913364        5.2054003311        6.9111609391
  H         9.6115268190        1.6215835561        6.9806211050
  C         9.9307038979        3.2712081079        5.9036667274
  H        10.6961009284        3.4785060697       11.6966802418
  H        11.5795579386        3.4272181126       10.1950139599
  C        12.1980659983        1.9462221878       11.5021755626
  C         7.4183185560        6.5995968482       12.6965172714
  C         9.8596619304        4.5857465512        5.7591869694
  H         9.4328096039        6.2971667083        6.7185043667
  C        10.4591351512        2.8560139320        4.6965987172
  H        12.9633314407        1.6261553904       10.7679538457
  H        11.6950940616        1.0895074584       12.0068665952
  C        12.8032241343        2.7183060298       12.6188832815
  C         7.4681291121        8.0025746818       12.9273187948
  C         7.0237803164        5.8235200556       13.9181977056
  C        10.3577558278        5.2753726063        4.4834976629
  C        10.7971733478        3.9201566008        3.9385558155
  S        10.9286973674        1.3182760182        4.0362422491
  H        13.5036405558        3.3624903948       12.0951964886
  H        12.2754748599        3.4533421698       13.1969906649
  C        13.6455818262        1.7982485759       13.5076414344
  N         7.9238862556        8.9842407274       12.0289948955
  C         7.1068498930        8.5690289907       14.1422090615
  C         6.7454140525        6.3852350063       15.1265822439
  H         6.9819799507        4.7533078297       13.9435671178
  C        11.5779230084        6.1718853926        4.6698697799
  C         9.2603845715        5.9132671194        3.7269837213
  C        11.3168218641        3.5191668581        2.7341604522
  C        11.3337873308        2.1577473034        2.5594220203
  H        14.4232674385        2.4287657348       13.9570731018
  H        14.0094887308        0.9097394072       12.8670765837
  C        12.8718897660        1.2505285968       14.6774858938
  S         7.9197086520       10.4142038767       12.8404106667
  N         7.2185999928        9.8986828626       14.1699532986
  C         6.7817490670        7.8561721615       15.2788602465
  H         6.5137412106        5.6575580184       15.8716281232
  H        11.3288373386        7.0640564856        5.2455362024
  H        11.9466026102        6.5616833189        3.7423157958
  C        12.6923803035        5.5045431822        5.4820579227
  H         8.8897120051        6.8918784020        4.2076130411
  H         9.7281493589        6.1476175561        2.7948380417
  C         7.9599606011        5.0070154993        3.5241579039
  H        11.4207405911        4.3122432860        1.9474922329
  C        11.6544196763        1.4252315528        1.2923218615
  H        11.8783988704        0.9700622136       14.2478709401
  H        13.4021642848        0.3229362322       15.0859927907
  C        12.7581228606        2.2101865195       15.8248035473
  C         6.4959468729        8.5465700884       16.5561791668
  H        12.2988523108        5.4271619808        6.5202334952
  H        12.9445248566        4.5759141089        5.0172393058
  C        13.9678313693        6.3125498905        5.6108277624
  H         7.3370366927        4.9040862791        4.3321461791
  H         8.2594063380        4.0501720497        3.1717334896
  C         7.1109671959        5.5337950584        2.4002153127
  C        11.7716194369        0.0264618264        1.0995078597
  C        11.7750874129        2.2132533510        0.0362565291
  H        12.3156008672        3.1331008105       15.4357729656
  H        13.7143021745        2.4700643887       16.3034918185
  C        11.8935300328        1.6381109135       16.9827428209
  H         6.5216016577        9.6748414625       16.5304940696
  C         6.4120894466        8.0457334099       17.8091394562
  H        13.8065086367        6.9664430246        6.4935235065
  H        14.2077750475        7.0188270657        4.7725358167
  C        15.1765874762        5.3689872791        5.8263191505
  H         7.7314161299        6.0171631217        1.6428063253
  H         6.6934734645        4.6445158002        1.8665011905
  C         5.9784483452        6.4245179399        2.9127675757
  N        11.5262551206       -0.8232984578        2.1899562030
  C        12.1188829516       -0.5933779398       -0.0353558290
  C        12.0351698881        1.5873544261       -1.1263685733
  H        11.7686297988        3.3410901642        0.1028675982
  H        11.7337753887        2.3290885370       17.6862547620
  H        12.2154615422        0.6244343904       17.3575040614
  H        10.8820414815        1.4288798776       16.4666057652
  S         6.1988298165        6.4281544271       18.3394561506
  C         6.2602089981        9.0527143872       18.9093811916
  H        14.8661833898        4.4837984038        6.3313963149
  H        15.6136980023        5.1652452071        4.8082238811
  C        16.3109992427        5.9631241071        6.6349785578
  H         6.2506683958        6.7939081588        3.8575311954
  H         5.0979123265        5.8235690553        3.0743456556
  C         5.7961519965        7.6688664106        2.0008875474
  S        11.7671898122       -2.3427774285        1.7107336570
  N        12.1791042602       -1.9481114353        0.1768631622
  C        12.2294285548        0.1090114753       -1.2775660553
  H        12.2446579099        2.2305196573       -2.0169031738
  C         5.8679238048        7.0820486356       19.9076359340
  N         5.9861367109        8.4021511035       20.0851919954
  O         6.1877874957       10.2650975180       18.7544133497
  H        16.8841478150        6.6814146603        6.0729225829
  H        16.0256268192        6.5810397710        7.4675078658
  C        17.3201161434        4.8280196620        6.9967333756
  H         6.6492465577        8.2007563994        1.4802138116
  H         5.1501068581        7.3356608333        1.1660169809
  C         4.8907106934        8.6744830541        2.7133822524
  C        12.5329591259       -0.6520549227       -2.4326878193
  S         5.3897809313        6.0996966849       21.3029993104
  C         6.1368871179        9.0460471123       21.3943188344
  H        16.8730801914        4.1192269390        7.6439121862
  H        17.5278473602        4.2135262218        6.0751324721
  C        18.5764726568        5.3333469258        7.6616132194
  H         5.1803390842        8.8854443548        3.7369215538
  H         3.9049687053        8.1601619778        2.7832585992
  C         4.6733243730        9.9931712605        1.9680163512
  H        12.3247328599       -1.6924957120       -2.3439590659
  C        13.0685000784       -0.3520200287       -3.6153518889
  H         5.4441879527        8.7551510844       22.1140046480
  H         5.9102163080       10.1265779852       21.3611891548
  C         7.6283416591        8.9367427408       21.8049781302
  H        18.8651375238        4.7261423780        8.4955110754
  H        18.1807590069        6.2322160212        8.0910368514
  C        19.7355084900        5.6378260140        6.7434008830
  H         4.0329464977       10.5281754008        2.6230572310
  H         5.6067258515       10.5900114849        1.8044711351
  C         3.8985911092        9.8383625151        0.6784487879
  S        13.5784203751        1.2499255327       -4.0307710892
  C        13.3244739808       -1.3747884502       -4.6270824994
  H         8.0859084545        9.8836996799       22.0512652815
  H         8.1379085500        8.4640359234       20.9963185940
  H         7.7210076326        8.2382774483       22.6551762915
  H        20.0301124491        4.7888105615        6.1819284348
  H        19.4572113486        6.3511097807        5.9912772586
  H        20.6694026653        6.1739954653        7.2007664143
  H         3.5781362522       10.7902904223        0.3406232565
  H         4.5454140209        9.3257885388       -0.0487132150
  H         2.9449867800        9.2490224698        0.8482291882
  C        14.2754353605        0.5198205652       -5.4365734139
  N        13.9283010078       -0.7900899167       -5.6734842243
  O        13.0050408170       -2.5680443332       -4.6044207102
  S        14.8538222644        1.4007768993       -6.8269306427
  C        14.1258758117       -1.4885921080       -6.9081033080
  H        14.3078458240       -2.5115624017       -6.7096997356
  H        15.0952220457       -1.0691458516       -7.3430046164
  C        12.9617343965       -1.2541384011       -7.9015820146
  H        13.3216131577       -1.5255431554       -8.9052519802
  H        12.7500040273       -0.2012095439       -7.9570941704
  H        12.0640236454       -1.7813014699       -7.5723171211
