352
 i =    19700, time =     9850.000, E =        99.7619501189
  H         9.9606587913        4.9754033189       31.6995377539
  C        10.0420886178        5.8471131252       32.2847999974
  H         8.9885761544        6.1150801218       32.4668809077
  C        10.8454005081        6.8353951793       31.3585229769
  C        10.8936012180        5.5244854404       33.5212274072
  C        11.3667741996        6.2665515549       30.0762073644
  H        10.2087654555        7.5874898403       31.0882828275
  H        11.7033437765        7.1702620504       31.8978174330
  H        11.1304572463        6.4357097065       34.0689136665
  H        10.2291590089        4.8687287197       34.2197940073
  H        11.8629707652        5.0398075696       33.2123754357
  C        10.2734710934        5.7020365416       29.1057398768
  H        12.0935850602        5.5096332390       30.2478521204
  H        12.0191936308        6.9164412502       29.5417723232
  C        10.6708223701        5.6113298873       27.6370968963
  H         9.7951293892        4.7153876688       29.4485207624
  H         9.4425515648        6.4019128975       28.9931637325
  C         9.6178062788        4.9267500466       26.6892569711
  H        11.6531182308        5.0183337047       27.6670190288
  H        10.9141730668        6.6360217925       27.3459185785
  C         8.4391844521        5.8435653665       26.3174416281
  H        10.0796032558        4.5452559451       25.7220849525
  H         9.3006775782        4.1039887459       27.1970610803
  C         7.2602473460        5.2016325154       25.5477561415
  H         8.1832755363        6.4989823753       27.1682179288
  H         8.8670596832        6.5237903922       25.5997135882
  C         6.9299009709        3.8894743992       26.2356098138
  C         7.7233895430        4.5452819131       24.3443432412
  C         5.9983865127        6.1227050225       25.4384756186
  C         7.1513401045        2.7789756407       25.4375910397
  C         6.3809441470        3.4181243648       27.4402374778
  C         7.6813556700        3.1843879472       24.2582551535
  C         8.2080527185        5.1441577432       23.1443278654
  H         6.2641448949        6.9636162338       24.7195185530
  H         5.8232937730        6.4674474459       26.4302186354
  C         4.7890841618        5.3966412562       24.8107786036
  S         7.0679988840        1.2575849581       26.2713951259
  C         6.2789897343        2.0679633091       27.5572121177
  H         6.1398166808        4.1012633952       28.1318880323
  C         8.0507408564        2.5083484039       23.1170640612
  H         8.3725239284        6.1617408944       23.1137680547
  C         8.6376001357        4.4732874731       22.0657466172
  H         5.1326765605        4.9654664942       23.8160556103
  H         4.6322449680        4.5992182178       25.5360799308
  C         3.4600994304        6.2466456745       24.7343179236
  C         5.8436231356        1.2736409990       28.8142466041
  C         8.5572111974        3.1407552563       21.9500217558
  H         7.8893388668        1.4737524944       23.0826933887
  C         9.0348197943        4.8460010586       20.8263466448
  H         2.6618142965        5.8179152256       24.1480471123
  H         3.6993973941        7.1565367913       24.2485854032
  C         2.9239437237        6.5745759743       26.1639862672
  C         5.9894685087       -0.0719255261       29.0375132347
  C         5.5502062866        2.0933237388       29.9363897981
  C         8.9226389563        2.4371314296       20.7524898553
  C         9.3041076636        3.7141169119       20.0329404007
  S         9.3062509078        6.3527365070       20.0362571205
  H         2.2498743067        7.4120012402       26.0241845529
  H         3.7516487393        6.8960978029       26.8237222895
  C         2.1704822100        5.4298305904       26.8491801404
  N         6.3020250334       -1.0254831563       28.0305282435
  C         5.7904864716       -0.7212265596       30.2270061521
  C         5.2710346376        1.4993735758       31.1667359430
  H         5.3137726955        3.1249890721       29.8331750860
  C         7.6658615584        1.7697245293       20.0446171845
  C        10.1404302738        1.5102144264       20.8926567592
  C         9.6407336313        4.0999798301       18.7135184899
  C         9.7046319918        5.4926370116       18.6041893682
  H         1.2770393552        5.1514850228       26.3691221083
  H         2.8164303163        4.5593960347       26.7652285364
  C         1.8738094029        5.9079888714       28.2845068742
  S         6.2306941173       -2.5355801089       28.6318125753
  N         5.9681677109       -2.1171224123       30.2058259522
  C         5.3713466450        0.0362382922       31.3803292031
  H         4.8589083200        2.0645110273       31.9583168928
  H         7.2704910125        1.0475493795       20.7523988948
  H         8.0132959392        1.2944734341       19.1781199928
  C         6.5281539313        2.7141285689       19.5970832271
  H        10.1445572099        0.6748263133       20.1463753740
  H         9.9453735074        1.0991858990       21.9317783676
  C        11.5231899524        2.1306316216       21.0620809580
  H         9.7477548796        3.3494547970       17.9636666287
  C         9.9242341961        6.2348906505       17.3071522366
  H         1.5558681184        6.8837657357       28.2364764970
  H         2.8180987851        6.0906255219       28.8735739883
  C         0.8093906844        5.0252002882       28.9997519399
  C         4.9749995731       -0.6046805461       32.5996845979
  H         6.8424177108        3.4519435525       18.8012074727
  H         6.2777807977        3.3588261833       20.4896556728
  C         5.3484132313        1.9948706697       18.9908994529
  H        11.5127487285        2.6795426048       22.0276895692
  H        11.7717812941        2.8261039279       20.2518179903
  C        12.6021721127        1.0255782166       21.2148564455
  C         9.8976216525        7.6644391969       17.1591577717
  C        10.1816074008        5.4415138921       16.0889807478
  H        -0.1313520425        5.4266379429       28.6511504756
  H         0.9987865639        4.0038204898       28.8569284523
  C         0.9793724499        5.0973108704       30.4635885467
  H         5.0428534215       -1.6720161896       32.4048039418
  C         4.5936377328       -0.2527844115       33.9000767878
  H         4.8340670650        1.3142125827       19.6727163141
  H         5.8057986775        1.3886431609       18.1778472220
  C         4.4849264986        2.9702768397       18.2177554786
  H        12.2943479052        0.4657250222       22.0720883229
  H        12.7036485625        0.3241067654       20.3899427375
  C        13.9622177553        1.6612096569       21.6190586188
  N         9.7467743366        8.6700714848       18.1393309972
  C        10.2247683064        8.2447464430       15.8950859727
  C        10.3560539674        6.0144508902       14.8423162518
  H        10.0005937349        4.4259566021       16.1156492640
  H         0.6460127660        4.1111611977       30.7843697679
  H         1.9685514807        5.4219644395       30.8144347534
  H         0.1715421189        5.7039052182       30.8272888517
  S         4.2559995789        1.2847793044       34.4496550342
  C         4.3306524665       -1.3999067867       34.8433349569
  H         4.4485710872        3.8987829409       18.6832641210
  H         4.8006002260        3.0705644657       17.2235760908
  C         3.0368128336        2.5077202991       18.3023975633
  H        14.1352379618        2.5144013565       20.9599656310
  H        14.7816792967        0.9660601187       21.2916331018
  C        14.0757953102        1.9287370000       23.1285363315
  S         9.8608414673       10.1769941542       17.4825598226
  N        10.2629474748        9.6433126812       15.9802959754
  C        10.4753762373        7.4859104494       14.6928396291
  H        10.3423976992        5.4016197797       14.0041346600
  C         3.8939015000        0.4966228259       35.9549328732
  N         3.8723229670       -0.8183465175       35.9629886722
  O         4.4630526220       -2.5761863246       34.6093686366
  H         2.4325717491        3.2535645799       17.7084768689
  H         2.7178271137        2.5695754272       19.3627213910
  C         2.6122739008        1.1525264707       17.7273052837
  H        13.0681028392        2.2681934660       23.4016931956
  H        14.1546159319        1.0357261207       23.8148438366
  C        15.1789285942        2.9697446005       23.5425091281
  C        10.9586225512        8.1699036423       13.5522044416
  S         3.5998046164        1.3835228754       37.4335492644
  C         3.7037459021       -1.6710788778       37.1553693708
  H         2.0408365714        1.2699361740       16.8052473724
  H         3.4252715296        0.5824749165       17.3382361546
  C         1.8610226917        0.3643639155       18.7537399071
  H        15.0232715255        3.2595244052       24.5428130130
  H        15.0772448954        3.8313568397       22.8859525640
  C        16.6054739076        2.4585751073       23.5552701643
  H        10.8842187900        9.2608109450       13.6789935770
  C        11.5024661575        7.7480214508       12.3509783747
  H         2.8065588387       -1.2547285294       37.7073652798
  H         3.3011507226       -2.6661272092       36.9485317541
  C         5.0402186160       -1.9089091025       37.9284724193
  H         0.9597175126        0.9533181035       18.8656273725
  H         2.3982793749        0.2343599250       19.6785374985
  C         1.5746499920       -1.0161047075       18.1434924196
  H        17.1973246265        3.1243197769       24.1870501366
  H        16.6996847549        1.5235505443       24.0334952374
  C        17.1936772100        2.3657619426       22.1511687178
  S        11.8318783792        6.1196245605       11.8738013212
  C        11.6655219807        8.8466517552       11.2935101298
  H         5.2339833399       -1.0988182600       38.6482346978
  H         5.0038671143       -2.9108174493       38.3311973876
  H         5.8416594578       -2.0287459140       37.1973918454
  H         0.7482436712       -1.5022006787       18.6525560203
  H         2.3647043343       -1.7083157565       18.1902778747
  H         1.2425593447       -0.9798156726       17.1632018101
  H        17.6236497312        1.3647748766       22.1088876466
  H        17.9705605530        3.1190480410       22.0299580284
  H        16.4400055562        2.6074700184       21.3789112611
  C        12.1272831121        6.8409834708       10.2717766093
  N        12.0925550450        8.2313128904       10.2221067452
  O        11.5682884669       10.0578278171       11.4675925927
  S        12.5747529554        6.0599494548        8.7986134995
  C        12.3169291786        8.9828201975        8.9774196733
  H        12.7171827851       10.0096405433        9.2612788833
  H        13.1308537960        8.6357348962        8.3331549506
  C        10.9587776447        9.1979949524        8.2010733184
  H        11.0117694539       10.2094275984        7.8376789378
  H        10.9201213404        8.3716884599        7.4260570027
  H        10.0224696319        9.0763897098        8.7763552835
  H         4.3704408611        1.3268475727       12.3905186411
  C         3.8510556295        2.2871008276       12.4515347514
  H         4.7005570396        2.8900561131       12.6137136025
  C         2.9665979915        2.7033921068       11.1955985278
  C         3.0574830541        2.2462344216       13.7533981178
  C         3.7293078794        2.9417008887        9.8566436639
  H         2.3508966115        3.5704579162       11.5248471271
  H         2.1721625242        1.9502672104       11.0352750157
  H         2.9858464552        1.2145437124       14.0824991320
  H         2.1369099260        2.8643369495       13.7320134720
  H         3.7008685615        2.6022404854       14.5731634510
  C         4.5265970524        1.6401368028        9.5038085603
  H         2.9947713759        3.2652049653        9.1255325807
  H         4.4310405101        3.7386034141       10.0942150929
  C         5.3993435567        1.8411838215        8.2684658899
  H         3.7880982989        0.9818694000        9.2558935247
  H         5.0571356863        1.1855104821       10.3011443507
  C         6.6177822629        2.7082659872        8.4764571382
  H         4.7348662108        2.3756508222        7.5670618910
  H         5.6008810694        0.9489983734        7.6675099410
  C         7.7675507165        1.9005646998        9.0915749064
  H         6.9752664698        3.0231768100        7.4642048583
  H         6.4001510944        3.6631461841        9.0353538052
  C         9.0680666458        2.7860144261        9.3432241779
  H         8.0140562579        1.0778001184        8.4352773741
  H         7.5511704785        1.3778552589        9.9955419705
  C         8.7932522668        4.1382154462       10.0663416610
  C         9.5873808789        3.4962350665        8.1200010008
  C        10.2313598898        1.9157236651       10.0265996972
  C         8.9430389021        5.1690189220        9.1785157308
  C         8.3972794627        4.5179858023       11.3446121288
  C         9.4748889490        4.7964526533        7.9846119162
  C         9.9447529940        2.8403914955        6.9610307489
  H         9.8730813197        1.4478259120       10.9673117586
  H        10.5580263252        1.0843660391        9.4065853474
  C        11.5277824897        2.6417852445       10.2999951651
  S         8.4379854961        6.6948584769        9.8953772392
  C         8.1629018210        5.8368527757       11.4222101007
  H         8.2306430749        3.7555160735       12.0662338634
  C         9.9124497636        5.4348457206        6.8677838227
  H         9.9464495708        1.8102368591        6.9747475638
  C        10.3535749124        3.4611318718        5.8356807959
  H        11.3068898394        3.6007286090       10.7666309175
  H        12.0484602026        2.8520518602        9.2876650741
  C        12.3318194886        1.8355388730       11.3378884396
  C         7.5843450848        6.4125551026       12.6544060085
  C        10.3926771075        4.8243279244        5.7375228128
  H         9.7433764314        6.5218082836        6.8275506175
  C        10.8121793212        3.0100408672        4.6077077234
  H        13.3670091711        2.0643091161       11.3815476523
  H        12.4034705750        0.7651584883       11.2419910632
  C        11.8321529198        2.1578946877       12.7272271555
  C         7.5958179095        7.7850358557       12.9403687114
  C         7.3196784221        5.5015890980       13.7800458523
  C        10.8644260856        5.4418210758        4.4224754805
  C        11.0538857199        4.0598026294        3.7362043598
  S        11.0296321472        1.4159185590        3.8823546495
  H        11.6702696879        3.2082742049       12.7918430541
  H        10.9423300867        1.6110238277       12.8871226100
  C        12.8901886396        1.8324383678       13.8403233943
  N         7.7654282463        8.7261125710       11.9674155198
  C         7.3257705283        8.3374546277       14.1063479502
  C         6.9717433220        6.0333629743       15.0093447780
  H         7.1329006777        4.4187976022       13.6189192312
  C        12.1502859438        6.3367507904        4.6164807328
  C         9.8077944641        6.1939318262        3.6695012005
  C        11.5184135058        3.5915652360        2.5512193120
  C        11.5487745443        2.2373984643        2.4772361732
  H        13.2855454047        2.8283263418       14.1322946176
  H        13.6639551451        1.2238516557       13.4400324187
  C        12.2226450685        0.9756592232       14.9212848289
  S         7.9305102812       10.1902810284       12.6947445863
  N         7.4585281757        9.7626261603       14.1304867199
  C         7.0345160317        7.5191530153       15.2377315694
  H         6.5943293788        5.2781891784       15.7505921149
  H        12.0213497537        6.9483871893        5.5077846562
  H        12.2679521001        7.0409188631        3.7482723275
  C        13.3915604507        5.6257725574        5.0653992156
  H         9.4725188493        7.0571251381        4.2352517609
  H        10.3236044919        6.6594521976        2.8937748405
  C         8.6832750550        5.2906339172        3.0335255615
  H        11.7953978286        4.2831756410        1.7721071048
  C        11.8878473484        1.4508526391        1.2521556926
  H        11.1837797381        0.6398959199       14.7126035407
  H        12.7566776007        0.0177087213       15.0907993720
  C        12.1817852209        1.7562372992       16.2522315586
  C         6.8248949629        8.1881341011       16.4799795312
  H        13.2224579530        5.2124842887        5.9988096353
  H        13.5609626552        4.7806431695        4.3275749396
  C        14.6435971925        6.4828622510        5.0969302010
  H         8.2779037537        4.4905229963        3.6513022764
  H         9.0081322961        4.8266734701        2.0971950284
  C         7.5393407579        6.2090556184        2.5656425350
  C        11.9205981236        0.0098475217        1.1215231892
  C        11.9585297245        2.2197833012       -0.0380401249
  H        11.2835208524        1.3451659523       16.7501008690
  H        11.9443503174        2.8103468461       16.0776555697
  C        13.3714564747        1.6491629368       17.1519803097
  H         7.1213491589        9.2302363321       16.4565433699
  C         6.5298226351        7.7557697682       17.7464278742
  H        14.5177249706        7.3551223641        5.7361737314
  H        14.9188309221        6.9761125151        4.1987880996
  C        15.8917029225        5.7018875326        5.5712238571
  H         7.4448969775        6.9592107654        3.3510771087
  H         7.9772458233        6.7986008022        1.7771385452
  C         6.2180253454        5.4753127721        2.3151520796
  N        11.4972136408       -0.8719593432        2.1012769866
  C        12.0066829794       -0.5782436862       -0.1415564288
  C        12.2866253186        1.5267868230       -1.2192267479
  H        11.7752889083        3.2836689204       -0.0710712338
  H        13.2138908264        0.7924610432       17.8944663104
  H        13.4235626822        2.4830622027       17.8044087569
  H        14.3264608542        1.3255211477       16.6904643373
  S         5.9861399109        6.1682822602       18.2136731745
  C         6.5603920370        8.7620856058       18.8136626413
  H        15.7248314992        4.6788610489        5.7010827146
  H        16.5947319278        5.8856765926        4.7492146552
  C        16.5424098617        6.0984743417        6.8785944702
  H         5.7038494269        5.2752751431        3.2652442149
  H         6.5209743150        4.4611298713        1.9862102065
  C         5.2768501114        6.1956104641        1.2730504267
  S        11.4710391987       -2.3649636826        1.5048912839
  N        11.7879202509       -1.9706003713       -0.0365109984
  C        12.3138514808        0.0799857472       -1.2900642281
  H        12.4835718006        2.1559234255       -2.0487536060
  C         6.0154033577        6.8821076589       19.8058136284
  N         6.1254680338        8.2175359365       19.9212765784
  O         6.6811579803        9.9716198430       18.6034606769
  H        16.8995573877        7.1545292370        6.7788000782
  H        15.8479803218        5.8998017919        7.6998608217
  C        17.7301198971        5.2524736709        7.3264988873
  H         5.8527286803        6.2121822554        0.3527627850
  H         4.3994042706        5.6410964351        1.2098169537
  C         5.0021710263        7.6697864685        1.6616492747
  C        12.6327150118       -0.6892190504       -2.4530044308
  S         5.3979141266        6.0483029814       21.2396459836
  C         6.0616150209        8.9812530935       21.1446383522
  H        17.6972163811        5.1536553110        8.3409213075
  H        17.7144314387        4.2325408203        6.9709516602
  C        19.1530397825        5.8896836156        7.1720842071
  H         5.9106173741        8.1529870088        1.4819810998
  H         4.8287550148        7.6519444777        2.6968726120
  C         3.7694238348        8.1556869004        0.9099114518
  H        12.4958088835       -1.7897854976       -2.3217847278
  C        12.9901043437       -0.2960331478       -3.7376555397
  H         5.4188860926        8.5707501659       21.9346290966
  H         5.8513016704       10.0109090486       20.8744385751
  C         7.4256937307        9.0719072350       21.8518330727
  H        19.9244329651        5.4882063614        7.7647416704
  H        18.9990161798        6.9479578684        7.3215130736
  C        19.7106918527        5.6928830120        5.7423719896
  H         3.7826463614        7.8187173733       -0.0904902115
  H         2.9095774451        7.7243695133        1.3890921842
  C         3.5459205333        9.7111146997        1.0404602098
  S        13.3057382617        1.3249683675       -4.3263626718
  C        13.2032114466       -1.3313618663       -4.6921849333
  H         7.3125285988        8.6068046456       22.8266182009
  H         7.5824339398       10.1879930557       21.9760934512
  H         8.2550253886        8.6283788584       21.3382254904
  H        19.8625595394        4.5884197284        5.7041801893
  H        19.1600362673        6.1212216687        4.9176268931
  H        20.7785787295        6.0343245356        5.8089271694
  H         3.9256010427       10.0702747406        1.9270787734
  H         3.9154113392       10.2936727065        0.1751091009
  H         2.4655575951        9.9774694903        1.0388445264
  C        13.8067941937        0.5480001889       -5.8583992417
  N        13.6492798074       -0.8463528635       -5.8761279068
  O        13.0453868018       -2.5252357460       -4.4049253401
  S        14.1267153408        1.4607673078       -7.3175958482
  C        13.8857582661       -1.6405563865       -6.9888583885
  H        14.1804818711       -2.5875625502       -6.6645153522
  H        14.7750006295       -1.2625412558       -7.5751543997
  C        12.5788994354       -1.6319107145       -7.8561372411
  H        12.4490852411       -0.7494780381       -8.4676886622
  H        11.7105773682       -1.7476517055       -7.1443026676
  H        12.4324485679       -2.5349637350       -8.3829767325
