352
 i =    46200, time =    23100.000, E =        97.9791562005
  H        10.2516193000        4.9249942424       31.4617786987
  C        10.2521218067        5.9185367393       31.8844024556
  H         9.1837165590        6.0908568680       32.0728860165
  C        10.8286802442        6.8265549262       30.8606703345
  C        10.9872151348        5.8872861564       33.2243790275
  C        11.1304838307        6.0621796766       29.5592712525
  H        10.2259781530        7.7468928802       30.6974529885
  H        11.7670132390        7.2969825615       31.2939961260
  H        10.4291888708        5.2442944614       33.8755512573
  H        11.9658338117        5.4631928298       32.9879334830
  H        11.0632445938        6.8752702955       33.6993820074
  C        10.0992848692        6.0572886716       28.4814102659
  H        11.3941540359        5.0245839558       29.7078945408
  H        12.0175135951        6.4829868522       29.1720542831
  C        10.7431231072        5.6024236747       27.1936632744
  H         9.3062664384        5.3563578088       28.7437725712
  H         9.5074379607        7.0382992415       28.4042397079
  C         9.7637158432        5.1242462315       26.1585176952
  H        11.3595011693        4.7568636603       27.3810919546
  H        11.4902203823        6.2948886471       26.7610112989
  C         8.5568568223        6.0094341868       25.9118048002
  H        10.3904035072        4.9166575839       25.2556264441
  H         9.4063733481        4.0976130686       26.4129153465
  C         7.4001087969        5.2418998364       25.2938706447
  H         8.2790660720        6.5889485949       26.7873737729
  H         8.9421506845        6.6812359879       25.1806307201
  C         7.0321304973        3.9382846987       25.9498405595
  C         7.7130347018        4.5296961394       23.9901497492
  C         6.1445104402        6.2110689776       25.1674039874
  C         7.1026757638        2.8292968835       25.1482501889
  C         6.5052535331        3.5732648519       27.1212505942
  C         7.5808887509        3.2079254937       23.9722767435
  C         8.1931910829        5.1257848248       22.8577010747
  H         6.2562758386        6.9967468693       24.4344971007
  H         6.0216529803        6.7182222520       26.0888787528
  C         4.8452293904        5.5904508648       24.7165953210
  S         6.6071830126        1.3254812259       25.8032491317
  C         6.2984911197        2.2173093173       27.2184012934
  H         6.4064510769        4.3930510141       27.8567467399
  C         7.8872405200        2.5609002637       22.8035643932
  H         8.2321417861        6.2128155254       22.7670915404
  C         8.4905601625        4.4110208223       21.7032428183
  H         5.0322972699        5.2517891757       23.6625338452
  H         4.6172116836        4.7548940468       25.3095209842
  C         3.6404037721        6.6422651987       24.7835592201
  C         5.7692031254        1.5920387761       28.4611134307
  C         8.2831365624        3.1248796369       21.5743953375
  H         7.9097050956        1.4705809582       22.9568518722
  C         9.0135456996        4.8703859990       20.4669121428
  H         2.8992037215        6.6277543644       23.9925368859
  H         3.9626949970        7.6755425625       24.6585675273
  C         2.9943682317        6.6470677471       26.1754295199
  C         5.8567137796        0.1691461153       28.7294490264
  C         5.1678776251        2.3887014521       29.5633438449
  C         8.7908518074        2.4421268317       20.3723736983
  C         9.1593625837        3.7802615731       19.6136734318
  S         9.5016961719        6.3514136590       19.8822857586
  H         2.2500693658        7.4221026252       26.2351912957
  H         3.7240925395        6.8487243908       26.8940312976
  C         2.1478155710        5.3949000385       26.5535880531
  N         6.4591821483       -0.7766274851       27.9240375470
  C         5.4581798194       -0.3261788381       29.9674064549
  C         4.8998093747        1.9150198884       30.8577459699
  H         4.9846851900        3.4869513363       29.4377936583
  C         7.7780808583        1.5933535772       19.5173552309
  C        10.0969469854        1.7437287383       20.6825724130
  C         9.5062904478        4.2111978054       18.3587133194
  C         9.7592624661        5.5610927295       18.3945361738
  H         1.3058284720        5.2014706805       25.8111699027
  H         2.7301735542        4.4693085042       26.4708487488
  C         1.5601357744        5.5012618724       27.8961999411
  S         6.3004734856       -2.2034805096       28.6202585347
  N         5.7454327118       -1.6630174934       30.0476488639
  C         4.9899621692        0.4088769211       31.1174466731
  H         4.3574383079        2.6225352246       31.4924309206
  H         7.5241750610        0.7017886501       20.1566805202
  H         8.3285911403        1.1653038554       18.7101154223
  C         6.5196164697        2.3086285187       18.9272686692
  H        10.4541493741        1.2363684564       19.7987451171
  H         9.8704624035        1.1025821060       21.4779952026
  C        11.2449032195        2.6419894337       21.1921669974
  H         9.6169848041        3.4737481626       17.6151670416
  C        10.3445759828        6.4121573581       17.2223320883
  H         0.9354883833        4.6394579994       28.0275490449
  H         0.9646585147        6.3825391857       27.9684239897
  C         2.5157998812        5.5468788100       28.9885254071
  C         4.6953283026       -0.3181074912       32.2811873367
  H         6.7556766940        3.1642069397       18.3518303923
  H         5.9200256027        2.6582092255       19.7352178810
  C         5.5756692684        1.3731783723       18.0494577388
  H        11.0864845929        3.0691374406       22.1581804485
  H        11.4472526517        3.5295378428       20.5760081978
  C        12.6295852177        1.9032779487       21.3518421462
  C        10.4609611983        7.8239542673       17.1526711737
  C        10.7248070872        5.7110000891       15.9781906521
  H         3.1881416909        4.7452289238       28.8861444606
  H         3.0831866645        6.4928323830       28.9169278374
  C         2.0082939037        5.6962795073       30.4532336616
  H         4.7412809018       -1.4051762847       32.1646407263
  C         4.4084023630        0.0962457614       33.5371490738
  H         5.3778840700        0.4291886973       18.5075699914
  H         6.0036530149        1.0933440807       17.0794240658
  C         4.3469870776        2.1261764641       17.7671896983
  H        12.3604733502        0.9293042190       21.8090995982
  H        13.1218593835        1.5866989912       20.4423990461
  C        13.6558535514        2.6911176655       22.1376715596
  N        10.0743451567        8.6588079333       18.1286414282
  C        10.7021574756        8.5392698685       15.9533789903
  C        11.0590524298        6.3900143888       14.8569184743
  H        10.6144734430        4.6194643918       15.9456403979
  H         2.8522638829        5.6226617022       31.1199355091
  H         1.5510866958        6.6727835671       30.6655185566
  H         1.1736742072        5.0538714414       30.7388327598
  S         4.3993634538        1.7013380969       34.0408781183
  C         4.4220588243       -0.9242663883       34.5986600531
  H         4.3710304168        3.1021135692       18.1415969429
  H         4.2889646008        2.1847798335       16.6904613073
  C         3.0047247796        1.4190355807       18.2629008841
  H        13.1948729949        3.2478590103       22.9788670428
  H        14.0438672075        3.3627405992       21.3432387072
  C        14.8890427404        1.8939459617       22.6183697712
  S        10.1912508226       10.1885273977       17.6545096663
  N        10.5984637120        9.9267634242       16.1274019195
  C        11.0052633465        7.8756987686       14.7444332937
  H        11.2371184844        5.8800233822       13.9372340264
  C         4.2029989098        1.0756502023       35.7126154922
  N         4.1480435128       -0.3062973902       35.8116765080
  O         4.4309511447       -2.1173764812       34.3462631456
  H         2.1726369425        2.1596222416       18.1749297825
  H         3.1478870867        1.3262678036       19.2901449767
  C         2.6788109115        0.0737084735       17.4845511887
  H        14.6379676630        1.2284381110       23.4352972242
  H        15.2117654630        1.3429238685       21.7494215834
  C        15.9589970554        2.9040656814       23.1908608082
  C        11.1550988162        8.5860466505       13.5121303002
  S         3.8618148516        2.0736267707       37.1195719723
  C         3.9908317381       -0.9776798362       37.1008781928
  H         2.1921442686        0.3456306224       16.5684766577
  H         3.6511397662       -0.4127619769       17.1624757051
  C         1.9006384010       -0.9988741582       18.3039033263
  H        15.8794755190        2.9657107105       24.2485894974
  H        15.7619462103        3.9259038012       22.8253286681
  C        17.4188425641        2.5365381467       22.8450564491
  H        10.8477271998        9.5858294519       13.5340523964
  C        11.8103305715        8.3008636654       12.3100038569
  H         3.6232437528       -0.3747951070       37.8400937368
  H         3.3767086295       -1.8692495809       36.9571852927
  C         5.3868879745       -1.2699298828       37.6291377789
  H         1.0158774211       -0.4818775847       18.6075098406
  H         2.3768976827       -1.4934285715       19.0859836513
  C         1.5492003786       -2.2021351246       17.4136562815
  H        17.4050784841        1.9558578240       21.9922540331
  H        17.9266532667        3.5015162394       22.5778277143
  C        18.2376301559        1.8797533926       23.9368395204
  S        12.4031544873        6.7456101036       11.6998993766
  C        11.9007499851        9.3963104163       11.3048333578
  H         6.0250235266       -1.7268943883       36.8633102561
  H         5.7579882110       -0.3587895650       38.0366119479
  H         5.3816354212       -2.0510388193       38.4109735512
  H         2.3627456684       -2.5716014161       16.7929244858
  H         0.6884268868       -1.9507097916       16.7578584780
  H         1.2896045088       -3.0244172443       18.0129645682
  H        17.9839757220        2.1769202584       24.9824350670
  H        19.2670355796        2.1410697244       23.7915064275
  H        18.0710653623        0.8221099459       23.9441072213
  C        12.7345410602        7.6058543644       10.1243783048
  N        12.4124783787        8.9618601073       10.1347879295
  O        11.3781829864       10.5258407166       11.4988887305
  S        13.1366567959        6.8278565854        8.6089318705
  C        12.2946865275        9.7355163516        8.8636626955
  H        12.7196879946       10.7808331550        9.0406940501
  H        13.0108148612        9.4342759334        8.1077850488
  C        10.8749610674        9.8865572987        8.2477171373
  H        10.9393106190       10.5182310816        7.3692296352
  H        10.2701998360        9.0102461821        8.0035784212
  H        10.3441116459       10.4436101054        9.0388080934
  H         5.3107938884        2.7046365633       12.3457093235
  C         4.2730384528        3.0598799066       12.3520383020
  H         4.2174917385        4.1857219069       12.2408501092
  C         3.5666115813        2.2802895119       11.2863584614
  C         3.7333573835        2.7835595364       13.7102158877
  C         4.3552810087        2.3025564249        9.9797143583
  H         2.5567430993        2.5849681912       11.0781009288
  H         3.4432791524        1.2220305999       11.5658743203
  H         3.0078713231        3.5600550596       14.0262060483
  H         4.5147496751        2.7796307594       14.4902110696
  H         3.0853431552        1.8953887636       13.7017646081
  C         5.2937001051        1.0829675559        9.7191788721
  H         3.6810080296        2.3662983905        9.2210227072
  H         4.8663574693        3.2771299782       10.0329798070
  C         6.0893657290        1.3487693112        8.5152329749
  H         4.6333001775        0.2160985112        9.6852368373
  H         5.9316284081        0.8269143455       10.5873436762
  C         7.1382810782        2.5010724377        8.6667528053
  H         5.3814826312        1.5388485657        7.6947516632
  H         6.5108950449        0.4950775170        8.0278441013
  C         8.5186344139        2.0248747628        8.9434467506
  H         7.2340768026        2.9375171560        7.6474843242
  H         6.8206847087        3.3342578350        9.2860842833
  C         9.5967645588        3.0992168665        9.2349980102
  H         8.7797107363        1.5359648445        7.9972024347
  H         8.5272448728        1.2761014561        9.6928165344
  C         9.1967287681        4.4309488473        9.9422410378
  C         9.9698795544        3.8510011784        8.0350438868
  C        10.8696820411        2.4107805604        9.8360961442
  C         9.2088246569        5.5497151140        9.0861848523
  C         8.7472027944        4.7944051393       11.1836014392
  C         9.7691587434        5.2163771879        7.8353095302
  C        10.5024290840        3.2191204863        6.9352170785
  H        10.6225249680        1.9628168687       10.8083098518
  H        11.2792280102        1.6557618436        9.2194240456
  C        12.1549781036        3.3227981222       10.0939357483
  S         8.8174482132        6.9775267450        9.8054372654
  C         8.5017925303        6.1826831017       11.2224184101
  H         8.6544439767        4.0323384423       11.9477767144
  C        10.1341584331        5.8383034428        6.6952315406
  H        10.6724892573        2.1800711214        7.1013544041
  C        10.7633181661        3.8021848216        5.7123091453
  H        11.8314166403        4.3371765082       10.3497932011
  H        12.7085232217        3.5259822067        9.1230581862
  C        13.0822619352        2.7900810298       11.2073626988
  C         8.0445241859        6.8540376721       12.4658819831
  C        10.6150040135        5.1254988579        5.5462432594
  H        10.0886940906        6.8973697074        6.7906515186
  C        10.9933021432        3.2806902341        4.4645755688
  H        14.1114435439        3.1766381768       11.1493523027
  H        13.1471526158        1.7117506568       11.0505974258
  C        12.5379680570        2.9751043094       12.6913102622
  C         7.9403578328        8.2281619464       12.7562248743
  C         7.7204619595        5.9426179002       13.6621391509
  C        10.8994394752        5.6761338604        4.2369265141
  C        11.1518083114        4.2963404750        3.5844218757
  S        11.2910835492        1.7062748181        3.7702236482
  H        12.1325439526        3.9432080988       12.8563982079
  H        11.7000715700        2.2949489194       12.6815078006
  C        13.6047814050        2.4355984372       13.7171406363
  N         8.3634846423        9.1714662247       11.8883438776
  C         7.7387350838        8.7446280706       13.9542994032
  C         7.4192753856        6.5074873153       14.9239178365
  H         7.7362886569        4.8800876900       13.5485644588
  C        12.0915117516        6.5390351740        4.4909593537
  C         9.6945854893        6.4694412640        3.5896755834
  C        11.4328490628        3.8232555220        2.3208606717
  C        11.6082582371        2.4460409110        2.2329046973
  H        14.5563088914        2.9886127587       13.6435091101
  H        13.7797243117        1.3536976570       13.4697958028
  C        12.9337501465        2.5235033293       15.0830362383
  S         8.2618751351       10.6512550902       12.5682604277
  N         7.9153903610       10.1434295186       14.0316578931
  C         7.3669073419        7.9618572851       15.0878801181
  H         7.1670017553        5.8502710672       15.6846662135
  H        11.7605876465        7.2601746524        5.2223580578
  H        12.3977020112        7.0220912073        3.6251029903
  C        13.2552243298        5.6803123058        5.0311352926
  H         9.6112136790        7.5053540176        3.9869433967
  H        10.0170045704        6.7767627551        2.5852645595
  C         8.4679588779        5.5855549615        3.4745872857
  H        11.3886800946        4.5522320892        1.5429087286
  C        11.7355425036        1.7725933496        0.8696259953
  H        12.4714786074        3.4884545044       15.2708443137
  H        12.1330145893        1.7759761357       15.3686287557
  C        13.9963873839        2.4643244848       16.2455041312
  C         6.9214957425        8.6280327725       16.3020717030
  H        13.0936149221        5.0662958972        5.8686205686
  H        13.5384997681        5.0409187764        4.2902934580
  C        14.4626245051        6.5660990867        5.2738904391
  H         8.0247073958        5.4960879639        4.4312779344
  H         8.7492425711        4.5893620169        3.1145891099
  C         7.4424715453        6.2048544774        2.5523627284
  C        11.7869921921        0.3901207742        0.7020566616
  C        11.9783986354        2.4783137018       -0.3517566125
  H        14.7820378809        3.1781682136       16.0167782390
  H        14.3294171084        1.4107647850       16.1021736546
  C        13.3478627437        2.6273020896       17.6121745658
  H         6.9098241407        9.6991064609       16.2033726753
  C         6.5625694218        8.1601908542       17.5203600223
  H        14.3680987370        7.2342956190        6.1207779215
  H        14.6390398825        7.2253269884        4.3990296457
  C        15.6562561369        5.6732603092        5.5611399489
  H         7.1789141187        7.1388344827        3.0416682321
  H         7.9804619743        6.5453360264        1.6445603017
  C         6.1552922589        5.3800852864        2.2886710040
  N        11.4330024383       -0.4865774241        1.7496524818
  C        12.0212586530       -0.3035837166       -0.5096546686
  C        12.3326402476        1.8514737956       -1.5597481833
  H        12.1287657581        3.5330803836       -0.2656479518
  H        12.4983779972        1.9409192183       17.6632543460
  H        12.8034852837        3.6837138502       17.6900151888
  H        14.0942780899        2.5819369474       18.3376885931
  S         6.4532118810        6.5250669843       18.0393702565
  C         6.3440385984        9.1583138630       18.5378723877
  H        15.3552072561        4.8419653421        6.1385618914
  H        15.9447761697        5.3809816914        4.5536900675
  C        16.7880548444        6.3305057932        6.4268977990
  H         5.7126638882        5.1258542399        3.2098147384
  H         6.3651901513        4.4878872750        1.7129474997
  C         5.0636918008        6.1123810954        1.3682021027
  S        11.5973864804       -2.0272184379        1.1948766745
  N        11.8533325476       -1.6856087337       -0.3909243439
  C        12.3985732359        0.3814204177       -1.7105160004
  H        12.5505530205        2.4409982450       -2.4244483140
  C         6.1876986990        7.2754446820       19.6955711254
  N         6.2122769363        8.5398562585       19.6973957773
  O         6.4483328661       10.3470536210       18.3404287096
  H        17.2915359202        7.1111989990        5.8208810195
  H        16.2251165002        6.8743409296        7.2234508580
  C        17.7288519623        5.3524093762        7.1263780261
  H         5.5766199677        6.2303859879        0.4225283335
  H         4.1841094364        5.5225397109        1.0490379045
  C         4.5197188231        7.3516132424        2.0545133748
  C        12.6913015402       -0.3292281894       -2.9583232225
  S         5.8884573950        6.3437454848       21.1167053932
  C         6.1213763425        9.2554471306       20.9498495000
  H        17.1362154342        4.8373974728        7.9031520254
  H        17.9299510392        4.5202033076        6.4204747744
  C        18.9963417846        6.0712790318        7.6336874185
  H         5.2571446486        7.6090870022        2.8260122971
  H         3.5701988398        7.2548665737        2.5909975176
  C         4.5607810939        8.4840793127        0.9730943643
  H        12.4635083952       -1.3891189626       -2.9270544207
  C        13.0858231681       -0.0111776505       -4.2402188674
  H         5.3705530144        8.8943258613       21.6277565203
  H         5.8122516134       10.2461748968       20.6479116261
  C         7.5168058893        9.3037278333       21.6636366888
  H        19.3656705182        5.6655210908        8.5656520040
  H        18.8132734061        7.1381305117        7.8323861791
  C        20.0176850998        6.0113100581        6.5613644444
  H         5.4284640827        8.2887884514        0.3619537598
  H         3.6661721448        8.3071993141        0.2921844979
  C         4.5825851800        9.8882807635        1.5283048629
  S        13.4314705891        1.5911437372       -4.7526924489
  C        13.2248533012       -1.0330803861       -5.3020805777
  H         8.0121456717        8.3039792119       21.7047555033
  H         7.3838715510        9.5422048451       22.7319797967
  H         8.1815486286        9.9845352358       21.1344781027
  H        20.3416824095        4.9212168404        6.4279575034
  H        19.7248295957        6.2427679140        5.5592392670
  H        20.8887959692        6.5682858578        6.7593871597
  H         5.4336948257       10.1259822451        2.0929432293
  H         4.4555017336       10.5508402715        0.6887616645
  H         3.8724223162        9.9792440607        2.3083182322
  C        13.7490609114        0.8967409122       -6.3328658647
  N        13.7087312652       -0.5042487628       -6.4167621742
  O        13.0197199238       -2.2375151831       -5.0811161754
  S        14.3920389364        1.8199127462       -7.6432406763
  C        13.9818237944       -1.2038325212       -7.6584002030
  H        14.3022936325       -2.2437896382       -7.3885161169
  H        14.7809203205       -0.7669251352       -8.2434616335
  C        12.6642046074       -1.3414686822       -8.4457427261
  H        12.8608986994       -1.5410087711       -9.5177809210
  H        12.2121554508       -0.3825924653       -8.3663976109
  H        12.0260264422       -2.1926528425       -8.0159578015
