352
 i =   109400, time =    54700.000, E =        98.7724154117
  H         9.9281111217        5.2712072976       31.6412551893
  C        10.3756952966        6.0355720728       32.2250632430
  H         9.6892598697        6.8673374434       32.1535603453
  C        11.6415183369        6.3881431278       31.4621788142
  C        10.7008232314        5.5240367899       33.6367286665
  C        11.3234751532        6.8347522417       30.0547501845
  H        12.2369080720        7.2151982084       31.9273496145
  H        12.3621449288        5.5555426309       31.4431476387
  H        11.3914436145        6.1729228129       34.1125173007
  H         9.7769937886        5.4195016575       34.2728543375
  H        11.1308946222        4.5007301614       33.5810249764
  C        10.5662068056        5.7987205830       29.1944450410
  H        12.2851897488        7.0175864872       29.5833973823
  H        10.8381610677        7.7666141481       30.0608030118
  C        10.7157573026        5.9235346862       27.6472807210
  H        10.8787042855        4.8429537315       29.4415772864
  H         9.4661461395        5.9217744875       29.5369625861
  C         9.6174778451        5.2839210154       26.8526085425
  H        11.5649484584        5.2223468015       27.5522013132
  H        11.0771849819        6.8515439800       27.2569912226
  C         8.4901523529        6.1290851187       26.3047324887
  H        10.0945024015        4.6956239489       26.1215182243
  H         9.1555596185        4.5055512550       27.5491639189
  C         7.4117100079        5.3158840913       25.6114286545
  H         8.0191270290        6.5719992648       27.1208268939
  H         8.7799352965        6.8995710470       25.6643837968
  C         7.0880755875        4.0205978455       26.3136026164
  C         7.8683654992        4.5175952448       24.3861951178
  C         6.2198205329        6.1596378640       25.3247938465
  C         7.2176706421        2.8797065487       25.4904295616
  C         6.6291725941        3.6860287443       27.6258101194
  C         7.6876341466        3.2310840716       24.2517662793
  C         8.4498058385        5.0728343020       23.2682619996
  H         6.5402815974        6.8749862283       24.6049786067
  H         5.9476788178        6.6432784285       26.2574759519
  C         4.9635303424        5.4759180738       24.7593625790
  S         7.0647709039        1.4467781254       26.3512990773
  C         6.4856104444        2.3478801311       27.7405286917
  H         6.4179712052        4.4117689419       28.3438961116
  C         8.0092716934        2.5269983186       23.1215886562
  H         8.5892584455        6.1501212540       23.3751987431
  C         8.7178732078        4.4262691931       22.0310491339
  H         5.3272140820        5.1113732846       23.8019345579
  H         4.6045425943        4.5961258953       25.3094120552
  C         3.8021239073        6.5058129582       24.6629835673
  C         6.0439349274        1.5500951542       28.9823465096
  C         8.5533826407        3.0880304483       21.9724707354
  H         7.8598090440        1.4824108132       23.1046672243
  C         9.0540813160        4.7845169791       20.7676437215
  H         3.1466320135        6.0304518323       23.8743317582
  H         4.0485043533        7.3736030076       24.0914988833
  C         2.9923497430        6.8434691208       25.9174785071
  C         6.1891826682        0.1781262544       29.1732059012
  C         5.5249892546        2.3806178632       30.0702551219
  C         8.9839497197        2.3191138040       20.7061154417
  C         9.2188239728        3.6984616923       19.9877657713
  S         9.3336029306        6.2687261906       19.9757125648
  H         2.3395498032        7.6239204062       25.6883361891
  H         3.6966314010        7.1294075830       26.6157466538
  C         2.1160456539        5.6230398365       26.3467139805
  N         6.4982879546       -0.8121067364       28.1698582812
  C         5.9003644929       -0.4149782078       30.3255952435
  C         5.3519448843        1.7908931594       31.3381143442
  H         5.3270285758        3.4091321432       29.9790390102
  C         7.8733447075        1.5302561073       20.1521009809
  C        10.2965068206        1.5468122357       21.0241504554
  C         9.6052870668        4.0619812175       18.6409793652
  C         9.6848491984        5.4051395128       18.4679301575
  H         1.6239779087        5.3469287964       25.4515209602
  H         2.7022256627        4.7473797583       26.5486720979
  C         1.1698050604        5.7974940182       27.5128951055
  S         6.6511689569       -2.3077702117       28.8896788536
  N         6.1732361261       -1.7958714399       30.3119215597
  C         5.5343941959        0.2868091924       31.4828951415
  H         5.0152234608        2.4853706678       32.0675667871
  H         7.4112265620        1.0629415374       20.9367684950
  H         8.2863778476        0.7814809871       19.4160320275
  C         6.7501015637        2.3391045012       19.4810503339
  H        10.5070179828        0.7054261262       20.3736818100
  H        10.2040987285        1.0592732712       21.9965275832
  C        11.5437315583        2.4844343741       21.1154567644
  H         9.8695101134        3.3285681144       17.8863825480
  C        10.1328008052        6.1256728977       17.2439748574
  H         0.6253071813        4.9172804819       27.7151607736
  H         0.3450297147        6.4815635713       27.2577281314
  C         1.9015463939        6.2710974912       28.7542922109
  C         5.1993524718       -0.4421098809       32.6628354826
  H         7.1433765357        2.9999843027       18.7391686447
  H         6.1198105594        2.9272547837       20.2226853799
  C         5.7797495038        1.4166669764       18.8012925698
  H        11.4126046499        3.3496409452       21.8323302550
  H        11.6464578842        2.9576148050       20.1279045935
  C        12.7755726459        1.7109412299       21.4266298848
  C        10.2709722842        7.5131127056       17.1708957274
  C        10.4389469088        5.3718963696       15.9763214719
  H         2.0240450387        7.3781309676       28.5605297580
  H         1.2519780694        5.8886842541       29.5599477415
  C         3.3047402215        5.6675152726       29.0202519445
  H         5.5427716789       -1.4174564801       32.6907989155
  C         4.8531485989       -0.0486150654       33.9461435780
  H         5.3194668655        0.8452312815       19.5913605450
  H         6.1906813298        0.6658593589       18.0710696629
  C         4.6262382340        2.1978241221       18.1567363033
  H        12.6720530205        1.2409697980       22.3735177309
  H        12.7947222824        0.8945873623       20.6920494105
  C        13.9972372750        2.4939547246       21.3045142703
  N        10.0163882344        8.4373651571       18.2129107398
  C        10.5003044168        8.1326310530       15.9611144220
  C        10.6610894036        6.0330270250       14.7767294530
  H        10.3040296279        4.2775444770       15.9692364611
  H         3.4781407858        5.8500783043       30.0632932931
  H         3.4891191894        4.6288825253       28.7079496437
  H         4.1442193623        6.2447826649       28.6238977506
  S         4.4279442212        1.5275267953       34.5591888521
  C         4.9648080708       -1.0605636608       35.0238540237
  H         4.5399112149        3.1454021908       18.7168123923
  H         4.8833492847        2.4897711991       17.1213909751
  C         3.3587462981        1.2641857893       18.1341299253
  H        13.9199658025        3.3510862340       21.9622465533
  H        14.1378151712        2.8193489532       20.2084823079
  C        15.2461029418        1.6969017484       21.6327816595
  S        10.2430717934        9.9343846232       17.5440832607
  N        10.4821860729        9.4753013031       16.0355160091
  C        10.7648464041        7.4829274436       14.7544079429
  H        10.8080484895        5.5245132317       13.8723328642
  C         4.3379656869        0.7262281519       36.1795804667
  N         4.5051139370       -0.5884256022       36.1943136778
  O         5.3137373446       -2.2134101707       34.8442033395
  H         2.6794030686        1.7540011113       17.5258528920
  H         2.9613099185        1.1020426872       19.1381947423
  C         3.5254175065       -0.1420900226       17.5318014000
  H        14.9912394651        0.6187151652       21.7424125414
  H        15.8685821082        1.6549182645       20.7846683809
  C        16.0467556152        2.4617951631       22.7584715529
  C        11.1280176626        8.3271426878       13.6076632645
  S         3.9626486863        1.4468431711       37.7727068552
  C         4.3995601143       -1.4630360995       37.3903633835
  H         4.3618654791       -0.2215353736       16.7891555217
  H         3.8092866811       -0.8299553044       18.3291920456
  C         2.3467818212       -0.7209362071       16.8459519530
  H        15.6537616062        2.0754317830       23.7240516131
  H        15.9409827241        3.5771278757       22.7612365220
  C        17.5699110289        2.1283644464       22.7013071306
  H        10.7674182403        9.3352111457       13.6907114358
  C        11.4190047444        8.1268046184       12.2821599006
  H         3.5260224156       -1.1581526613       38.0038042985
  H         4.0274205328       -2.4202665458       37.0863544968
  C         5.7212243424       -1.5408687565       38.1454338616
  H         2.1768780217       -0.2697406108       15.8656490561
  H         1.4147134549       -0.6373923073       17.3434365763
  C         2.4899943784       -2.1881316891       16.5883911992
  H        17.6843576467        1.1952569488       22.2206636489
  H        18.1802421632        2.8802031462       22.1725692843
  C        18.1085045918        1.8555955857       24.1024141631
  S        11.9076557799        6.6213957566       11.5936532916
  C        11.3079193445        9.2997571806       11.3535939139
  H         5.5085447427       -1.7705844494       39.1814817687
  H         6.3273201658       -2.3925928967       37.7243348150
  H         6.2463812319       -0.6029769332       38.1205625477
  H         2.1257637262       -2.5133125579       17.5279681715
  H         3.5397400867       -2.3017315680       16.5192208317
  H         1.9250929281       -2.6253561973       15.7568203434
  H        19.1306479638        1.4386055300       24.0528332688
  H        17.4767167551        1.1074769988       24.5307846643
  H        18.1584833575        2.7147809141       24.8016643033
  C        12.0004387090        7.5278234733       10.0944068769
  N        11.7885242229        8.8501777344       10.1667674006
  O        10.9202735033       10.4684525017       11.6289719661
  S        12.5029299008        6.9247275821        8.5284757706
  C        11.7294996601        9.6995288453        8.9857941705
  H        11.6165474093       10.7142085625        9.3208044964
  H        12.6301968042        9.8693472835        8.5337653338
  C        10.5123801237        9.2824343991        8.0945863589
  H         9.7495386421        8.7552677906        8.6166662207
  H        10.0153090317       10.2387866306        7.8760423963
  H        10.7182477079        8.7852190046        7.1899574429
  H         2.4292884717        4.0662660887       12.6841048343
  C         2.7762563897        3.0469180947       12.5508065521
  H         1.9948275925        2.6599554161       11.9055509581
  C         4.1777198442        2.8538961349       11.9517891546
  C         2.7529939302        2.5102889853       14.0343789201
  C         4.4123307618        3.0392286772       10.3987497262
  H         4.4183981487        1.7923016766       12.0740315500
  H         5.0425599561        3.4079063069       12.4615576636
  H         2.1560130849        3.1460685578       14.6234793334
  H         3.7375454141        2.6934608890       14.3527229892
  H         2.4554497977        1.4839541734       14.2039822379
  C         4.7983218397        1.7470928723        9.7387112283
  H         3.5710130560        3.4549544732        9.8996919510
  H         5.3070266592        3.6727796256       10.3973012013
  C         5.2673837973        1.8834404660        8.3077870252
  H         3.9340477310        1.0759098018        9.7344643332
  H         5.5631346494        1.1710324657       10.3056823975
  C         6.6426200835        2.6305921502        8.2152819465
  H         4.5521904495        2.3372547439        7.6172469525
  H         5.4128907879        0.9018532428        7.7712250996
  C         7.8952396162        1.9842745748        8.9962522888
  H         6.7417076451        2.8274282682        7.1674955316
  H         6.5567543276        3.6693783970        8.6231460711
  C         9.0510374162        2.9045236353        9.1923382645
  H         8.1316188735        1.0900697092        8.4083143711
  H         7.6281134732        1.6409732567        9.9882627679
  C         8.7427634302        4.2220769641        9.9252930373
  C         9.3330402725        3.6705662286        7.9719138471
  C        10.4276471354        2.1784591644        9.6982890522
  C         9.0039829776        5.3878396420        9.1772850996
  C         8.2842670744        4.5866091952       11.2022109322
  C         9.3760427859        5.0528833562        7.9188830312
  C         9.8142875170        3.0672082677        6.7825935171
  H        10.1869175899        1.5161824310       10.5938001158
  H        10.7925644171        1.5432100408        8.9828178650
  C        11.5859983698        3.1403460321       10.0418501144
  S         8.6957883233        6.7953598150       10.0187883783
  C         8.1747815702        5.9463499513       11.3910970805
  H         7.8523326786        3.8289613792       11.7731468790
  C         9.8092077445        5.6631318742        6.7924817289
  H         9.9081037035        1.9993946774        6.6976536884
  C        10.2602901009        3.6997459798        5.6527514006
  H        11.2044146753        4.0701036798       10.4855597273
  H        12.1730881637        3.4371222153        9.1970552404
  C        12.6003389019        2.6372649280       11.1625044500
  C         7.7964738375        6.5453098400       12.6845643648
  C        10.3141497548        5.0336878545        5.5768561784
  H         9.8301009792        6.7042129107        6.9801073028
  C        10.8252248234        3.2767976227        4.4546472366
  H        13.4942232482        3.3350384110       11.0447914065
  H        12.9724907094        1.6806116877       10.8995405779
  C        12.0637343289        2.7178828412       12.6104262237
  C         7.6524362110        7.9230720732       12.9194370816
  C         7.6149375975        5.6783829055       13.9142788152
  C        10.7868567532        5.6964670824        4.2831274491
  C        11.0946339628        4.3269505302        3.5918089857
  S        11.0426548815        1.7370135519        3.8570244737
  H        11.7395828414        3.7995885491       12.7128121758
  H        11.2973197913        2.0518579357       12.9292192547
  C        13.1652464365        2.5187842878       13.5933848567
  N         7.7477116086        8.8503614713       11.8979398967
  C         7.4961308966        8.4085981272       14.1692705793
  C         7.2030488234        6.1505596053       15.1620844433
  H         7.5031728440        4.6404685784       13.7065093250
  C        12.1112908770        6.4745170366        4.5796908036
  C         9.6848675917        6.5421199236        3.6498357125
  C        11.5715663579        3.8042665226        2.3926771436
  C        11.4394756044        2.4154725625        2.2985099639
  H        13.7855371467        3.3350786374       13.4932656061
  H        13.7047695240        1.5811880161       13.3212908565
  C        12.6049643850        2.2349761203       14.9472541638
  S         7.6859286928       10.3543774359       12.5535102732
  N         7.4588935547        9.8279322878       14.0781884447
  C         7.2553967472        7.6556167197       15.3528789175
  H         7.0729153819        5.4014668506       15.9079445574
  H        11.8932146087        7.1923499187        5.3326099784
  H        12.5445166586        6.9331512943        3.6967217586
  C        13.2727234307        5.5701331392        5.1375437897
  H         9.4308887776        7.2771359141        4.3997441991
  H        10.0445634539        7.0289788065        2.6944791020
  C         8.3624226091        5.7928732740        3.4345625711
  H        11.8563086327        4.5136163506        1.6689409298
  C        11.7666439409        1.5825051061        1.0717201446
  H        11.7387634871        2.8783173136       15.1952050130
  H        12.0374839945        1.3061728435       14.8910276805
  C        13.7206478093        2.3835514548       16.1369869842
  C         7.0838291886        8.3106435786       16.6126940956
  H        13.0595644725        5.2759347159        6.1600619050
  H        13.3969397254        4.6127888415        4.6460319650
  C        14.6213427645        6.0895915369        5.1844826157
  H         7.9785063742        5.4134083474        4.3760843099
  H         8.5064107335        4.9470021122        2.7506209850
  C         7.3110847255        6.5888574189        2.7705312046
  C        11.7659160474        0.1880829326        1.0114159503
  C        12.1220064668        2.3400482521       -0.1140385107
  H        14.1460423149        3.3904689358       16.2667199796
  H        14.6623705415        1.7876534068       15.9527801529
  C        13.0435909280        2.1065654431       17.4332626063
  H         7.3381602212        9.3445505933       16.5406148103
  C         6.5761031784        7.9609518261       17.8476814181
  H        14.5192140691        7.1620457613        5.3770958756
  H        15.1698349827        5.9752658615        4.2587617079
  C        15.4905425681        5.4632814209        6.2945866601
  H         7.0383468310        7.3825688582        3.5135580067
  H         7.7094362303        7.0186609875        1.9018073713
  C         6.1092406013        5.7184911298        2.3599438285
  N        11.5438477792       -0.6309727754        2.0811894282
  C        12.0878458748       -0.4250220073       -0.1443576720
  C        12.4202111299        1.7183823589       -1.3077919917
  H        12.1733455043        3.3994676334       -0.0733260678
  H        13.6282294732        2.7522946550       18.1361856158
  H        13.0438279942        1.0735938685       17.6842187155
  H        12.0640817642        2.4974986367       17.5760127214
  S         6.0121262871        6.4142513770       18.2601974521
  C         6.5436128352        8.9309434049       18.9746835916
  H        15.0104741383        5.5889156048        7.2180426184
  H        15.4748260120        4.3953222704        6.1108496786
  C        16.9715313828        5.8369332808        6.2683986497
  H         5.8590631210        4.8878957108        3.0429202195
  H         6.2743546057        5.2068588955        1.4418803262
  C         4.9096139733        6.6312943966        2.0908771715
  S        11.6139002226       -2.1615969222        1.5911362229
  N        12.1062497947       -1.7898829211        0.0700130014
  C        12.4824834044        0.2549327098       -1.2945055275
  H        12.8077527790        2.3093246743       -2.0788853856
  C         5.9215812410        7.0498908360       19.9109449069
  N         6.1268963184        8.3480361830       20.1254005439
  O         6.9266019372       10.1258015687       18.7587503793
  H        17.4177495112        5.5982377035        5.3044634777
  H        17.0993490185        6.9515070437        6.3240112996
  C        17.7489357287        5.3125069567        7.4016206697
  H         4.0485933636        6.0439517476        2.1111779397
  H         4.8307946118        7.4914754335        2.7664422249
  C         4.8426725198        7.2621563483        0.7212467076
  C        12.7041752662       -0.4726005239       -2.4766108276
  S         5.5750630215        5.9993646274       21.2734041070
  C         6.0785268311        9.0161285536       21.4857625526
  H        17.1808747554        5.2994476750        8.3304453671
  H        18.1314951029        4.3225663135        7.2383662877
  C        18.9591504974        6.1505118840        7.6647277185
  H         4.6801308120        6.5305376072       -0.0821670974
  H         5.8632953543        7.6629051160        0.5043606144
  C         3.7880227360        8.3647840086        0.5839071064
  H        12.5294408652       -1.5460922479       -2.3294270549
  C        13.2435254716       -0.2076540013       -3.6877440304
  H         5.2768748571        8.6188253818       22.1093477271
  H         5.7593048296        9.9894184154       21.2734957397
  C         7.4621901228        8.8668462369       22.1546618490
  H        19.4799398136        5.8176156560        8.5555483567
  H        18.5246011308        7.0334688707        8.0050419097
  C        19.8426022702        6.3438982266        6.3876345470
  H         3.6832393047        8.5585132697       -0.4664496394
  H         2.7311064505        8.2119025754        1.0265485372
  C         4.1999255522        9.6359937825        1.2031434285
  S        13.7585409004        1.2643754579       -4.3257498179
  C        13.3103295474       -1.3115845700       -4.6776438228
  H         7.9474665562        8.0759753108       21.6173343515
  H         7.4045437545        8.4862695967       23.1540131689
  H         8.1235276501        9.7415111666       21.9500433956
  H        19.3660764583        6.8770323966        5.5980070462
  H        20.7410048832        6.8718160366        6.7115353057
  H        20.2302713518        5.4501154766        5.9336955761
  H         3.3853628123       10.3051012750        1.1993463163
  H         4.4848697359        9.4377050908        2.2496767318
  H         5.0611010275       10.0583168397        0.7074094204
  C        14.0974624367        0.4325810130       -5.7766688851
  N        13.8842658870       -0.8431001288       -5.7601742913
  O        13.0304215916       -2.5157545713       -4.4598861970
  S        14.7917020228        1.0810526534       -7.2341626847
  C        13.9119905133       -1.7737529110       -6.9223064372
  H        14.3317767855       -2.7767537957       -6.6576091448
  H        14.5354582453       -1.4822454494       -7.6666408672
  C        12.4866352534       -1.9789193202       -7.5044918758
  H        12.5508647271       -2.9255736594       -8.0398523681
  H        12.1245560993       -1.1018519176       -8.0737740201
  H        11.6588716871       -2.1445702641       -6.8320994614
