352
 i =    75700, time =    37850.000, E =        99.3681022394
  H        12.2086615159        6.8197818056       32.1979262322
  C        11.7108685997        5.8928254153       32.2536584289
  H        12.5547721268        5.2755166073       32.3227852928
  C        10.8172699060        5.5346963314       31.1260613390
  C        10.8824452122        5.7680412867       33.5342350559
  C        11.4674740666        5.6827684190       29.7358736711
  H        10.3574374474        4.5322240297       31.1911356549
  H        10.1106699801        6.3356224024       31.2008057642
  H         9.8851741113        6.1827099197       33.5298837497
  H        10.5840001096        4.7470253766       33.8285710171
  H        11.3189032977        6.3072783462       34.3005830643
  C        10.4847510699        5.5537303019       28.6759370615
  H        12.1182240170        4.9041416030       29.5979340504
  H        11.9772139636        6.6448800755       29.6019542966
  C        11.1148287441        5.4299383979       27.3210780902
  H         9.7647725971        4.7226499419       28.8669553233
  H         9.9798575079        6.4801581042       28.6929955097
  C        10.0503449510        4.9087782340       26.3563106625
  H        11.9153293236        4.7582095941       27.2659527922
  H        11.3153887827        6.3507843566       26.9177023407
  C         8.9121805588        5.8884717198       26.0350922465
  H        10.6377742083        4.6787841175       25.4998910215
  H         9.7308904272        4.0266288018       26.7150342119
  C         7.6653764520        5.1379074256       25.4163374434
  H         8.5862353032        6.3225811664       26.9535866520
  H         9.2335814650        6.7659408376       25.4441131772
  C         7.3854174397        3.8064661648       26.2008608325
  C         8.0194811790        4.3768169873       24.1964188262
  C         6.3932152130        6.0187215320       25.3479555213
  C         7.4772302990        2.7440389111       25.3864059893
  C         6.9334036546        3.5856546899       27.5281579164
  C         7.9486644323        3.0287024969       24.0968181736
  C         8.4732076376        4.9638507868       22.9813185243
  H         6.6303506750        6.8558349762       24.7075041128
  H         6.2227344161        6.4985577417       26.2984662856
  C         5.1368768340        5.2832255529       24.9324858260
  S         6.9112958808        1.3212127680       26.2098510953
  C         6.5709270699        2.2417818994       27.6623169045
  H         6.8640301599        4.3541561448       28.2898737981
  C         8.2529193886        2.4423913468       22.8998866446
  H         8.3713041915        6.0617967959       22.9846811090
  C         8.7548000749        4.3371215261       21.8027311583
  H         5.2908578971        4.8748576366       23.9060943984
  H         4.8721022583        4.4383459245       25.5312323245
  C         3.9259416308        6.2953046946       24.8781639896
  C         6.0673272880        1.6024469143       28.8565609539
  C         8.6473894669        2.9858335844       21.6726604916
  H         8.0328003650        1.3950815534       22.8158576614
  C         9.1150357945        4.6851348943       20.4884965538
  H         3.2325751154        5.7894465581       24.1799404073
  H         4.0610920046        7.1579090767       24.4184257689
  C         3.2889368820        6.4351965109       26.2954896516
  C         5.9489285810        0.1759076138       29.0869110454
  C         5.7516151743        2.4496458659       30.0426834947
  C         8.9237594989        2.2713687531       20.4156752079
  C         9.2165510924        3.5632044170       19.7030791543
  S         9.3562792043        6.2375535534       19.7050408654
  H         2.3925311779        7.0972332229       26.2386809737
  H         3.9789595401        6.8450269154       26.9527368001
  C         2.8452290353        5.1155983896       26.9333702869
  N         6.2540057024       -0.8087421156       28.1818613387
  C         5.6267621634       -0.3595876975       30.2838005489
  C         5.3551027022        1.8834150909       31.2520838902
  H         5.6772985937        3.5428335005       29.9128942268
  C         7.7129536693        1.5042359063       19.7372719425
  C        10.2525666133        1.4430869272       20.6695959776
  C         9.6510988601        4.0056265190       18.4272155138
  C         9.7405994041        5.3839170272       18.3069950104
  H         2.3843987727        4.5499672765       26.1343377846
  H         3.7398708406        4.5984722359       27.2752461625
  C         1.8982867400        5.2965424848       28.0628878150
  S         6.2664953868       -2.2507935404       28.9552689873
  N         5.6312246405       -1.7651754063       30.3252826821
  C         5.2872949176        0.4146511923       31.4072391897
  H         5.1403021036        2.5513081418       32.0803017395
  H         7.4951896951        0.6739249737       20.4034111896
  H         8.0948168961        1.0327862163       18.8038113404
  C         6.5231325029        2.4224596586       19.5825856177
  H        10.6928922043        0.8850546938       19.8524074547
  H         9.8980154417        0.7030134879       21.3551763403
  C        11.5049624133        2.2094365243       21.2064596557
  H         9.7675721427        3.2077709966       17.6676484606
  C        10.0446100575        6.0881461368       16.9905197339
  H         1.4278077037        4.3988764152       28.2333201238
  H         1.1958810320        6.0080372105       27.7580916885
  C         2.6694123140        5.6872740734       29.3125126503
  C         5.1510002308       -0.3038468526       32.6583534805
  H         6.7676308218        3.4193916380       19.1393040828
  H         6.0165175096        2.6328103221       20.4988927540
  C         5.5897191096        1.5956914622       18.6294718995
  H        11.3936974096        2.6381769539       22.1708881953
  H        11.7067016065        3.0843517071       20.6034906545
  C        12.7680696643        1.3226625888       21.3121428540
  C        10.1507953034        7.4807826494       16.8892526848
  C        10.3899766005        5.3288208812       15.7211279514
  H         3.4006720308        4.9149162870       29.4992606861
  H         3.4078399500        6.5064030927       29.2590199346
  C         1.7395578474        5.7400119246       30.5559665641
  H         5.2873807967       -1.3312282777       32.6348464663
  C         4.9294951373        0.0731406161       33.9730590645
  H         5.4257635920        0.5988490367       19.1369348644
  H         6.0300792197        1.4714348167       17.6458963006
  C         4.1872325063        2.2785345833       18.4676597635
  H        12.5929880851        0.6204987428       22.0796770238
  H        12.9482264952        0.7070883972       20.3721031749
  C        14.0413899723        2.1149225443       21.6056278118
  N        10.0163595148        8.3901925814       17.9254317512
  C        10.5011058616        8.1645424519       15.7450163337
  C        10.5996736009        6.0287059946       14.5384575406
  H        10.3389481448        4.2757620096       15.5812394090
  H         0.8004332508        6.2283857835       30.2109165084
  H         1.4056589256        4.7705415486       30.7888192518
  H         2.2549627302        6.2069797183       31.3791098155
  S         4.6501736439        1.5507878141       34.7050876976
  C         4.9405418217       -1.0354037464       35.0402007201
  H         4.0952677092        3.2310621373       18.9582414410
  H         4.0388299446        2.5824651819       17.4725188438
  C         3.0801949972        1.2746251428       18.8402492791
  H        14.1732067785        2.7446845463       20.7167049868
  H        14.8784567653        1.3856019547       21.5071383270
  C        13.9996595257        2.8072936860       22.9926317253
  S        10.1847292451        9.9131993319       17.3940779669
  N        10.7548018016        9.5366953541       15.9217639416
  C        10.6940291107        7.5256939100       14.4983312550
  H        10.7295975065        5.5101855336       13.5728880515
  C         4.4414200090        0.7515519682       36.2406790047
  N         4.4411557114       -0.5504592219       36.2331980702
  O         5.1458651382       -2.1748547302       34.7807275263
  H         2.2013722494        1.7815627860       19.1975175113
  H         3.2892156181        0.7099704452       19.7163156671
  C         2.7443166442        0.4180591757       17.6515250326
  H        13.0649462208        3.3253282648       23.3404871968
  H        14.2401946518        1.9659844973       23.6198740647
  C        15.1182264940        3.8089263800       23.0747042750
  C        10.9943580891        8.3365028005       13.3494299672
  S         4.0926477470        1.6034436919       37.7355078370
  C         4.1582637630       -1.4192357941       37.3731750447
  H         2.5108841000        0.9809155701       16.7374945718
  H         3.5945371549       -0.1303191051       17.4236099972
  C         1.6118609077       -0.4774422985       17.8675319876
  H        15.2553609758        4.0102110534       24.1141695259
  H        14.7547117467        4.7123590596       22.5909629992
  C        16.4536253799        3.3864209837       22.4891314552
  H        10.5854979459        9.3296627429       13.4630517361
  C        11.5244041152        8.0406688481       12.1416920163
  H         3.5355788677       -0.9199228472       38.0831965500
  H         3.5962520893       -2.3891014144       37.0633500239
  C         5.4870786821       -1.7247055459       38.0261369628
  H         1.5125016772       -1.1131674273       17.0109343544
  H         0.6456250419        0.0949213684       17.9971189414
  C         1.8080183934       -1.5459058528       19.0105755826
  H        16.4399313090        3.0337456550       21.4647877801
  H        17.1319968408        4.2036327912       22.5770622820
  C        17.1114815883        2.2155573525       23.3657661036
  S        11.8499003815        6.5032105329       11.4651013020
  C        11.6026013937        9.2081909673       11.3087492967
  H         5.3911479945       -2.6246665311       38.5528373706
  H         6.2281406454       -1.7379043761       37.2167449465
  H         5.6584385935       -0.8700877919       38.6995822975
  H         2.8088679567       -1.9651952019       18.8124687461
  H         0.9756447024       -2.2853979987       18.8859797496
  H         1.6361291985       -1.0527356421       19.9715706197
  H        17.8347866125        1.7259541942       22.7083799448
  H        16.4571082131        1.4876145207       23.8196419026
  H        17.7376588223        2.5819107111       24.1715107053
  C        12.2629135418        7.4610272814       10.0570404578
  N        12.1074707265        8.7522682314       10.1505591468
  O        11.4265611715       10.3926209873       11.5582536043
  S        13.0631586360        6.8947108392        8.5400584247
  C        12.2068251900        9.7126768468        9.0396583791
  H        12.4349988653       10.6893782299        9.3965887731
  H        12.9548670814        9.5140338780        8.2892166852
  C        10.8930549193        9.8735135607        8.2722743773
  H        10.3047925664       10.6977880097        8.6990613253
  H        11.0070279003        9.9344666322        7.1913313556
  H        10.3773571198        8.8989550193        8.4002852729
  H         2.6685893145        1.3559648470       12.6277923176
  C         3.3767660253        2.1581312504       12.5701048230
  H         4.3112192284        1.6897853976       12.3419200932
  C         3.0412957413        3.1156806518       11.4165448342
  C         3.4057339748        2.8688060074       13.8542419330
  C         4.1053358154        3.2080247760       10.3768035927
  H         2.8580255416        4.1884188269       11.6764267092
  H         2.1367606394        2.7073109099       10.9646088507
  H         3.9432380508        2.3193848127       14.6252807909
  H         2.4341645500        3.0257728520       14.2430490956
  H         4.0040962610        3.7648781887       13.6886339290
  C         4.6093641838        1.8071619636        9.7413140241
  H         3.8314381602        3.9196894633        9.6119708995
  H         4.9179042324        3.8099280055       10.8894174167
  C         5.2869029900        1.9153947060        8.3294466449
  H         3.8439739030        1.0602833209        9.6689534243
  H         5.2708485543        1.3876580736       10.3984589562
  C         6.6005510075        2.7960697369        8.3819910946
  H         4.5366605274        2.2670688461        7.5885847605
  H         5.5139976282        0.8436333771        8.1186816589
  C         7.8575385540        2.0668346397        8.6973903102
  H         6.6222610444        3.2930583488        7.4092074550
  H         6.4315432380        3.5584034181        9.1384609875
  C         9.0283640479        2.9994118836        9.0029406759
  H         8.1613787854        1.4732999109        7.8005868780
  H         7.7452788815        1.3602079692        9.5527432043
  C         8.7793556583        4.3245046953        9.6966373898
  C         9.5565462539        3.7178444219        7.7982369417
  C        10.1531805894        2.2762004708        9.9103498868
  C         9.0717127503        5.4254829506        8.9342221186
  C         8.3469820026        4.6609670341       10.9492254436
  C         9.5708652721        5.0473623680        7.6996708732
  C        10.1295252934        3.0583810649        6.7175150573
  H         9.7961797232        1.9149060044       10.8227866897
  H        10.6018003528        1.4190562022        9.4501548998
  C        11.3802038024        3.2052851371       10.2256076785
  S         8.6985162097        6.8945208753        9.7288359478
  C         8.2194007601        6.0018995790       11.0914829081
  H         8.0396460434        3.8928999685       11.6936414454
  C        10.1054720764        5.6438042542        6.6198444740
  H        10.0750828970        2.0009986795        6.6987796446
  C        10.6266784865        3.6394012443        5.5829898217
  H        11.0479233908        4.1537124812       10.6656157768
  H        11.7847086829        3.5232167634        9.3076841802
  C        12.5205113144        2.6421729936       11.0293492217
  C         7.7673268157        6.7017160380       12.3303035072
  C        10.6636766178        4.9989179810        5.5176452867
  H        10.1407057689        6.7074036376        6.5246568871
  C        11.0522981578        3.2069825313        4.3696686433
  H        13.2818568363        3.4157861960       11.0003734278
  H        12.8787122869        1.7700409542       10.4799609978
  C        12.1513632676        2.3069384198       12.4581098837
  C         7.7850124758        8.0626306680       12.6242462263
  C         7.4163334776        5.8380148257       13.4992089013
  C        11.0961469118        5.5974902408        4.2240882166
  C        11.3338566310        4.2843777270        3.5529054261
  S        11.1575843407        1.6449807973        3.6201029239
  H        11.5355492368        3.1347652251       12.8040140399
  H        11.5030802067        1.4356176128       12.5769953001
  C        13.3678281808        2.0494911434       13.3548045929
  N         7.9488945934        9.0566074878       11.7244876118
  C         7.5950592178        8.5740552772       13.9375615214
  C         7.1232421698        6.3245697782       14.7577981783
  H         7.1809526980        4.8010832283       13.3423380803
  C        12.4231883017        6.4356651406        4.2452091045
  C         9.9742489336        6.4392733488        3.4777245830
  C        11.7137683612        3.8429708605        2.2727428527
  C        11.7383051131        2.4084770347        2.2158526355
  H        13.7354045610        3.0459673241       13.6154713900
  H        14.2456681605        1.6852699219       12.8492810495
  C        13.0263808039        1.1037871492       14.5441011830
  S         8.0164282285       10.4970161662       12.4919470421
  N         7.8491358376        9.9633373587       14.0346000457
  C         7.3030027885        7.7643571055       15.0632475319
  H         6.6197570341        5.7149152793       15.4561828231
  H        12.2978052880        7.2152632952        5.0922718079
  H        12.6007449141        6.9808788536        3.3170794764
  C        13.6381185962        5.6310768483        4.7188350434
  H         9.6839943078        7.2925989715        4.0882937885
  H        10.3494431297        6.7697637431        2.4895435038
  C         8.6837359854        5.6969744982        3.1567299274
  H        11.9753806128        4.5694861536        1.5253413568
  C        12.0923566970        1.6454079735        0.9972826052
  H        12.6972793906        0.1651297212       14.1188119125
  H        14.0110808522        0.8186706756       15.0388213994
  C        12.1992277269        1.8510132348       15.5637328241
  C         7.1168444152        8.4232239689       16.2696372303
  H        13.2772011769        4.9961527309        5.4983029191
  H        13.9656740442        4.9451203189        3.9306006096
  C        14.7867578115        6.5595278365        5.0756697946
  H         8.2441686504        5.5537560095        4.1006156134
  H         8.8974438350        4.7015063289        2.7455232248
  C         7.8721787542        6.4642569535        2.1146234892
  C        12.0257980920        0.2145192861        0.8503676509
  C        12.3216873338        2.4465194539       -0.2229667245
  H        11.3264271290        1.1570112553       15.7992317453
  H        11.7167134550        2.7438941009       15.1555065549
  C        12.7663146771        2.2301755793       16.8661519082
  H         7.4700772816        9.4164464505       16.2974482287
  C         6.6988357437        7.9880610493       17.4783552183
  H        14.4739456047        7.1661771523        5.9439892815
  H        15.2591835125        7.1228413133        4.2603194078
  C        15.8766107744        5.6815273308        5.6397338815
  H         7.5790282376        7.4272793928        2.5654554546
  H         8.5337239870        6.6995818631        1.3217248017
  C         6.6731463877        5.7728305107        1.4922463117
  N        11.7607183809       -0.6860388344        1.9535590385
  C        12.2667337191       -0.3260590076       -0.3697494519
  C        12.5559452241        1.8233591327       -1.4541228267
  H        12.2000949892        3.4716199947       -0.2016571586
  H        13.6447393198        2.8422747090       16.7571859102
  H        13.0075495735        1.2926835474       17.4588969425
  H        12.0440947752        2.8029808161       17.5311731809
  S         6.3953350321        6.3796760768       17.9655512797
  C         6.5595173364        9.0439683927       18.5159456817
  H        15.4731372269        4.7506636771        6.1009361035
  H        16.3814065827        5.3470275745        4.7362782567
  C        16.8086981346        6.6137253761        6.5177090888
  H         6.3788050698        4.7895195541        2.0024568291
  H         6.9416852322        5.5132217035        0.4905238196
  C         5.3892857100        6.5743411516        1.5291377349
  S        11.7677450095       -2.1764917899        1.2236804120
  N        12.2136250155       -1.7474293426       -0.3018167486
  C        12.5486927996        0.3425282039       -1.5988756281
  H        12.7339452095        2.3822862053       -2.3266310397
  C         6.1327874637        7.0607106107       19.5922011734
  N         6.2421293018        8.4275916089       19.6850761323
  O         6.7056439354       10.2384976345       18.3032685012
  H        17.2614164694        7.3034156276        5.8643667751
  H        16.2226029674        7.2714359735        7.2196888979
  C        17.8308195147        5.7806776032        7.1929581172
  H         4.5741518250        5.9717581508        1.2672944246
  H         5.2867269973        6.8770490542        2.5452070536
  C         5.3364047094        7.7301279443        0.5769817917
  C        12.8805335058       -0.3668567676       -2.8476921268
  S         5.8482745078        6.0680400843       20.9896932668
  C         6.3654662731        9.1487413504       20.9372873435
  H        17.3997771868        5.4987530387        8.1039726455
  H        18.0539688653        4.9586325651        6.5758824311
  C        19.1741632322        6.4576286479        7.2280744758
  H         5.3925763070        7.4401009944       -0.4628381708
  H         6.2006153220        8.3382224149        0.8351021142
  C         3.9504764047        8.3856423851        0.7572017796
  H        12.5162614778       -1.3858084332       -2.7479055329
  C        13.2727974758        0.0602985697       -4.0854193594
  H         5.8473380462        8.7215527741       21.7577326581
  H         5.8338457999       10.0720855074       20.7475917852
  C         7.8742725838        9.2362110231       21.4334822379
  H        19.6722511078        6.0199983525        8.1150807344
  H        19.0596314907        7.4641938811        7.3787488776
  C        20.2170541056        6.1537492108        6.0980828139
  H         3.2282455643        8.0840444489       -0.0699553731
  H         3.4862898388        8.1087466271        1.7122519198
  C         4.0704164196        9.9200581447        0.7595407776
  S        13.7872597283        1.6495000558       -4.5648395394
  C        13.3492037323       -0.9385636851       -5.1214124235
  H         8.4463953964        8.3525360653       21.3283867867
  H         7.9148437585        9.5525449890       22.5046819500
  H         8.4949308902        9.9768640525       20.9501263471
  H        20.8808286047        5.3439415966        6.5050511891
  H        19.7133395050        5.8256253984        5.1587523334
  H        20.7736514424        7.0327946691        5.8062611072
  H         4.6708544336       10.3227173939       -0.0169931586
  H         3.0074031605       10.2180671936        0.6646681507
  H         4.4463551274       10.4189972568        1.6582219790
  C        14.0151749534        0.9325997984       -6.1929755205
  N        13.8080699195       -0.3677078248       -6.1967907650
  O        13.0035564917       -2.1066356703       -5.0922430268
  S        14.5960224285        1.7972910656       -7.5891003421
  C        13.7985267237       -1.1683810666       -7.4610946041
  H        14.1339079222       -2.2255113465       -7.3409075032
  H        14.5047831160       -0.7850267931       -8.2027679536
  C        12.4274474275       -1.1102372195       -8.0937652686
  H        11.8092572071       -1.7282832893       -7.5470047320
  H        12.5628484488       -1.5169018106       -9.1677216462
  H        12.1012166349       -0.0611615672       -8.1196669146
