352
 i =    90500, time =    45250.000, E =       100.2535733563
  H        11.3192668147        7.6075827064       33.2253396633
  C        11.3639477640        6.5024141642       33.0102754763
  H        12.4141330547        6.1547302810       32.8085621866
  C        10.2969534343        6.2708395737       31.9166551727
  C        10.9747674056        5.7624308678       34.2988726032
  C        10.9870427027        6.1232608895       30.5434336158
  H         9.9805614704        5.2511630909       32.2163723085
  H         9.3326360924        6.9205226648       31.9297288427
  H        11.7428972543        5.8740925018       35.0547630566
  H        10.0380606005        6.0969043364       34.6967438457
  H        10.7577219604        4.7215310887       34.1013544732
  C         9.9628871212        5.7016110360       29.4767443571
  H        11.8576453157        5.4265918942       30.5727209617
  H        11.3840581668        7.1028916419       30.2931770278
  C        10.5717979569        5.7378406341       28.0972665982
  H         9.7536504316        4.6287086212       29.5939558202
  H         9.0078205349        6.2639458316       29.5534922242
  C         9.8055600613        5.0662134934       26.9356915659
  H        11.5417310353        5.4093292390       28.0237316081
  H        10.6397321110        6.7783228285       27.7552808637
  C         8.7427176178        5.9889126916       26.4482658383
  H        10.4521784747        4.8034343027       26.1123947076
  H         9.3744790442        4.1038777444       27.2497011658
  C         7.5821126764        5.3483227891       25.5923499567
  H         8.2242847690        6.3812026082       27.3297201909
  H         9.2672858347        6.8043374087       25.9161274858
  C         7.1357151686        4.0085052523       26.2339352804
  C         7.9683731320        4.6016601818       24.3706846190
  C         6.3167804636        6.2955684404       25.3092508661
  C         7.4723305126        2.8865610425       25.4859632143
  C         6.5291372310        3.6500662224       27.5263950193
  C         7.9086739697        3.2783413884       24.2535313402
  C         8.3762120497        5.2126283066       23.1553895990
  H         6.7712311278        6.9729374605       24.5047294552
  H         6.1380338676        6.8479576002       26.2237487711
  C         5.0476467576        5.5684735186       24.8491408095
  S         7.0240988626        1.4348456429       26.2727556851
  C         6.4876416822        2.2935511344       27.7292921727
  H         6.1214784913        4.3966246341       28.0763495806
  C         8.1446099121        2.6085097459       23.0791742612
  H         8.4946162045        6.3366607874       23.1666277885
  C         8.5810218831        4.6261693117       21.9579315458
  H         5.1803612512        5.0283745175       23.9086675662
  H         4.7830762813        4.9470321029       25.7062416305
  C         3.8054547816        6.3650324558       24.5158522333
  C         5.9105351399        1.6098910336       28.9978939449
  C         8.5430288177        3.2503484264       21.8788068796
  H         8.0456474359        1.5221009289       23.1706605927
  C         8.9215210535        4.9946003374       20.6664277727
  H         3.2077057474        5.8016801772       23.8101062216
  H         4.0926223326        7.3361950284       24.0637397473
  C         2.9859134290        6.6541217522       25.8112411805
  C         5.8859740937        0.2146340099       29.2499394532
  C         5.4351412894        2.4716267590       30.1361013547
  C         8.8013552128        2.6106418832       20.5947254850
  C         9.0645728304        3.8835395088       19.8650919286
  S         9.2910251615        6.5196314767       19.8815697998
  H         2.2132760166        7.4209053818       25.6705548592
  H         3.7172593117        7.1432995068       26.5182650004
  C         2.2494012399        5.4666846173       26.4691492508
  N         6.2236567050       -0.7662404841       28.2944759383
  C         5.5206929947       -0.3513946534       30.4636582837
  C         5.1280762323        1.9352916205       31.3698171554
  H         5.3888859501        3.5291660218       30.0710531314
  C         7.5147317661        1.8240419492       20.1110897624
  C        10.0365681331        1.6131885649       20.6776638463
  C         9.4336835254        4.2146945185       18.5532037174
  C         9.5244453808        5.5620016835       18.4327240981
  H         1.4412616488        5.2378655447       25.8084125991
  H         2.8343665332        4.5413993060       26.4319521782
  C         1.6094468173        5.8306954328       27.8145004966
  S         6.1536471422       -2.2227251475       29.0080930970
  N         5.7925864686       -1.7237209943       30.5299953467
  C         5.1372287120        0.4713281444       31.5326066992
  H         4.8629802759        2.5903779265       32.2318484912
  H         7.5036967308        0.9214570862       20.7054813045
  H         7.7132345139        1.4495959887       19.1693731952
  C         6.1326430418        2.4958572961       20.1051545102
  H        10.1136313950        1.0469982824       19.7831164576
  H         9.9054679133        0.9124968259       21.4694859830
  C        11.3186600444        2.4309656343       21.0565240623
  H         9.4878648379        3.4462014378       17.8498227375
  C         9.9731106136        6.2686905918       17.1860882654
  H         0.6403627553        5.3923403999       27.7609561416
  H         1.4025539834        6.9176817479       27.7955110113
  C         2.3373823650        5.3883237657       29.0354811773
  C         4.8785324695       -0.2223740074       32.7937916556
  H         6.3407041652        3.5882142744       20.1731838565
  H         5.6215592699        2.4132673515       21.0102589073
  C         5.3522959919        1.9768103974       18.8562007995
  H        11.0050985138        2.8550672419       21.9610717452
  H        11.6607841531        3.1529055114       20.3190667248
  C        12.5651742691        1.6746647072       21.4831415494
  C        10.0798632230        7.6628741300       17.0256089237
  C        10.1246655227        5.5389860809       15.8826940458
  H         2.0658272684        4.3245536230       29.2696774308
  H         3.3754427737        5.3886808331       28.7486956498
  C         2.0749885248        6.3213325932       30.2117976698
  H         4.6995367838       -1.2341478342       32.7844318697
  C         4.6469642663        0.1703227990       34.0971597371
  H         5.6684698373        0.9521511460       18.5507227508
  H         5.6338346360        2.6664210388       18.0604967189
  C         3.8384098744        1.8207304958       19.1274657648
  H        12.3267033801        1.2912997853       22.4566380459
  H        12.8688646090        0.8842173739       20.7299284175
  C        13.7556169088        2.5049092999       21.8720301660
  N         9.8701121106        8.6278969142       18.0157747930
  C        10.3845102132        8.3140247834       15.8247900895
  C        10.4641879557        6.1190228381       14.7130285771
  H         9.9635868443        4.5194968397       15.9203919152
  H         2.8201720855        7.1025561097       30.2749767562
  H         1.1334612289        6.7112060881       30.1825065028
  H         2.0646785772        5.8228598463       31.1823466387
  S         4.4781300487        1.8085897933       34.7412121561
  C         4.6856127029       -0.9010744338       35.1478136123
  H         3.6552862416        1.0925539988       19.8663037810
  H         3.5886160505        2.7022632838       19.6662874280
  C         2.8786801570        1.4958522574       17.9777701677
  H        13.4781416937        3.3043073511       22.5088484194
  H        14.1756951664        3.0641946162       21.0074585962
  C        14.7881843652        1.7413326608       22.7535389299
  S        10.0270734466       10.1110058165       17.3685081351
  N        10.5429993367        9.7134696541       15.9256546383
  C        10.6205266747        7.5967372898       14.6580439025
  H        10.5557819359        5.4417547711       13.8243782611
  C         4.4284479128        1.0286881575       36.3691727515
  N         4.4143587843       -0.3200057271       36.3265635549
  O         4.8343255708       -2.0867322944       34.9340621158
  H         3.4725734624        1.4528355792       17.0667554542
  H         2.1991898208        2.2694282030       17.8034688667
  C         2.2278054846        0.1793613609       18.1815352606
  H        14.2338759233        1.2754081597       23.5502392735
  H        15.2853489566        1.0268855221       22.0828540441
  C        15.7716898042        2.7080950505       23.4188209016
  C        11.0045276956        8.3327613567       13.5039087527
  S         4.0638796359        1.9185295376       37.8288005699
  C         4.2867262884       -1.0136281443       37.6312247075
  H         1.7038406736        0.2124620755       19.0685359821
  H         1.4187226178        0.1103371032       17.4661652660
  C         2.9787293133       -1.1996801037       18.2329988648
  H        16.2389218088        2.2113394401       24.2447182147
  H        15.3037055735        3.5639125554       23.9864568812
  C        16.7577257671        3.2093766347       22.3950259040
  H        10.9073233509        9.3985289337       13.4642807243
  C        11.6435024694        7.8732000360       12.3384158972
  H         3.5984540675       -0.4856680296       38.4027777995
  H         3.6745336703       -1.9113545490       37.3542488015
  C         5.6331439296       -1.3771375739       38.1697676313
  H         2.1257373909       -1.8814444864       18.5255870285
  H         3.6591470211       -1.2659052190       19.0434736188
  C         3.5225290593       -1.5130574021       16.8144493068
  H        16.4841865938        2.8384472040       21.4211319044
  H        16.7337004531        4.3149004968       22.4368444424
  C        18.1258222611        2.6279740164       22.6772291567
  S        12.0851424280        6.2052361071       11.9719166471
  C        11.9260584930        8.8759329015       11.2590806446
  H         6.5243754404       -1.2323949867       37.4684905617
  H         5.7747430751       -0.8131651405       39.0529049980
  H         5.5605527260       -2.4274696202       38.3760770615
  H         4.3682726172       -2.1592509851       16.8578852684
  H         3.7216524196       -0.5864231728       16.2875047325
  H         2.7182569816       -2.0307869654       16.2232946344
  H        18.2948340916        2.5264176826       23.7423257632
  H        18.7960358758        3.3231152739       22.2542421335
  H        18.1655131992        1.6313127981       22.2686999835
  C        12.5121154092        6.7990806467       10.4286292039
  N        12.5232141843        8.1778575158       10.2331541959
  O        11.6412620985       10.0682603928       11.3160914512
  S        13.1381419333        5.8327789279        9.1151085679
  C        12.8037258874        8.7751795760        8.9533758236
  H        13.1431162388        9.7708956401        9.2552252723
  H        13.7198746756        8.2818434359        8.4304937726
  C        11.5827552540        8.9962779631        8.0324630964
  H        10.6367302201        8.6200524455        8.4892286639
  H        11.4887070368       10.0460239694        7.8584897645
  H        11.8269815706        8.5435931047        7.0731379698
  H         4.5238114580        1.8000611009       12.9052119581
  C         3.7844293718        2.5273668894       13.0325903269
  H         4.2642287229        3.4635428826       13.2296180821
  C         2.9386324112        2.6212648261       11.7724263950
  C         2.9202765359        2.1503074708       14.2788558448
  C         3.8479400808        2.7835938866       10.5395252636
  H         2.2571146089        3.5218563767       11.7634437167
  H         2.3512846493        1.7185038399       11.7984383191
  H         3.2639819124        2.6220928677       15.2065465523
  H         2.7752839173        1.0762004007       14.3967555119
  H         1.9264954096        2.5816540729       14.0568556550
  C         4.5565663529        1.5506872639       10.0892448486
  H         3.3542280917        3.2757388465        9.6805213068
  H         4.5434265709        3.5561905693       10.8017466919
  C         5.2327602769        1.6586753460        8.7064307806
  H         3.8020112054        0.7465388663       10.1023343616
  H         5.2084932653        1.1941557995       10.9555659372
  C         6.5372191994        2.5291092992        8.7943833052
  H         4.6561152324        2.0190842117        7.8747093638
  H         5.5348683214        0.6548986321        8.4534335131
  C         7.7622497508        1.7865550887        9.3828312911
  H         6.8867465383        2.7256054980        7.7519111903
  H         6.3575037347        3.4939960065        9.2563961645
  C         8.9945112711        2.7091155070        9.5714410949
  H         8.0634034951        0.9084503981        8.7151732479
  H         7.3992412590        1.4557752402       10.3430729647
  C         8.5278528984        4.0803034553       10.1666900619
  C         9.3995315610        3.3954146713        8.2789451230
  C        10.1472304355        2.0117861510       10.3473032500
  C         8.7427266027        5.1729512819        9.3629414133
  C         7.9218693990        4.4600484755       11.3645313443
  C         9.2545957765        4.7284775930        8.1571540007
  C         9.8923642216        2.7329981439        7.1823966157
  H         9.6845828714        1.5228225612       11.1935443849
  H        10.5194348197        1.1664102463        9.7368189411
  C        11.4009891048        2.8853249947       10.6631365611
  S         8.3375010916        6.7376323412       10.0937069192
  C         7.7852361466        5.8147472513       11.4700961186
  H         7.6744124054        3.7362844617       12.1078876113
  C         9.7193716388        5.3143959832        7.0006842315
  H        10.1668694532        1.6869301427        7.2290401607
  C        10.3059912051        3.3335065862        6.0460447635
  H        11.1228422473        3.8624592869       11.2196598974
  H        11.8336801757        3.3592757729        9.7702526476
  C        12.4532537247        2.1420455596       11.4287965352
  C         7.3479035738        6.5470020699       12.6750815061
  C        10.2346933732        4.6425972083        5.8756940958
  H         9.5823663690        6.3783964458        6.9406262543
  C        10.7807616415        2.9219154134        4.8306551008
  H        13.2312651937        2.8453342941       11.4760343993
  H        12.7981468099        1.2681114194       10.8656759870
  C        12.0619493328        1.7210762519       12.8504072983
  C         7.5185401827        7.9358852506       12.9010201187
  C         7.0615937007        5.7741025993       13.8886438915
  C        10.7904381331        5.2320147505        4.5480268724
  C        11.1187243358        3.9401235024        3.9506510122
  S        11.0119245037        1.3798710660        4.1018289172
  H        10.9904610466        1.5047661547       12.9500868716
  H        12.5337395378        0.7947875112       13.0090028944
  C        12.5230291109        2.7866954070       13.8150571378
  N         7.8485199262        8.8855441650       11.9264711855
  C         7.4484356180        8.5065338923       14.1645880204
  C         6.9382123543        6.3923343109       15.1245343435
  H         6.7216480198        4.7634829532       13.8011525391
  C        12.0582310534        6.1611226049        4.8513253605
  C         9.7144697411        5.9026901789        3.6501568992
  C        11.6403711238        3.5128295244        2.7007140105
  C        11.5844143157        2.1260263591        2.6551651576
  H        12.2478402223        3.7508622906       13.3538152784
  H        13.6687112850        2.8062951665       13.8511047458
  C        11.8237096011        2.6772995391       15.2109422916
  S         7.9129316973       10.4047111880       12.6389508620
  N         7.4793876065        9.8809037379       14.1204851173
  C         7.2264469432        7.8230725171       15.3384722809
  H         6.4572351473        5.8546325500       15.9329214808
  H        11.6990597638        6.9010251839        5.5218200189
  H        12.3899117308        6.7149077623        3.9636568922
  C        13.2568252451        5.3425198811        5.3525692405
  H         9.3578534498        6.7516441053        4.2663190622
  H        10.1882081093        6.2137927656        2.7388278090
  C         8.4667463775        5.0120369910        3.3649992206
  H        11.9543435923        4.2237814537        1.9363498242
  C        11.9346510184        1.3110899853        1.3527178373
  H        12.2000706099        3.4455432435       15.9005923880
  H        10.7613590581        2.8068411224       15.1114087012
  C        12.1795060055        1.2988900675       15.8110452482
  C         6.9677998164        8.4466828673       16.5588934016
  H        13.1049332246        4.8613509268        6.3405394499
  H        13.4968170740        4.6417273688        4.5219922278
  C        14.5475415016        6.1117390263        5.4745065262
  H         7.9829841317        4.7688363031        4.2955211868
  H         8.6238926946        4.0926005917        2.8253578442
  C         7.4565297890        5.8316068475        2.5817774108
  C        11.9292707168       -0.0838627472        1.1321496126
  C        12.2348906327        2.0451579323        0.1082319961
  H        13.1395681596        0.9462868802       15.4332311926
  H        11.5191592011        0.5492387849       15.6878499235
  C        12.2635953385        1.5597965894       17.3204710702
  H         7.0202796034        9.5115035805       16.5628382844
  C         6.6275108459        8.0152143493       17.8629697644
  H        14.4196481527        7.0155856885        6.1242152298
  H        14.8821339732        6.6147933049        4.5157201078
  C        15.7725187993        5.3376905436        5.8919426462
  H         7.5312198050        6.8529179028        2.8649411953
  H         7.8617754938        5.8294052676        1.5467650851
  C         6.0046940969        5.3284434114        2.6451066464
  N        11.6788314355       -0.9691537902        2.1474469089
  C        12.2835006811       -0.6782266530       -0.0979069408
  C        12.5075328364        1.4879035043       -1.1220308245
  H        11.9067116308        3.1094187301        0.1112920058
  H        11.9010190248        2.5461410492       17.6991611984
  H        13.3249544090        1.6553682676       17.6298669198
  H        11.7731532585        0.7746745544       17.9615288485
  S         6.2210260768        6.3871978815       18.3071325727
  C         6.5658832889        9.0435499707       18.9925960390
  H        15.5014116900        4.7869587344        6.7407885451
  H        16.0644029392        4.6880040307        5.1328443296
  C        17.0483156931        6.0916313405        6.1818273750
  H         5.8012334766        4.6668017825        3.4979123969
  H         5.8501709521        4.8282958816        1.6245114414
  C         5.0236166034        6.4824194048        2.7676932932
  S        12.0578811966       -2.4799409728        1.6257332744
  N        12.4898386197       -2.0788955653        0.0670686387
  C        12.5560415235        0.0058840159       -1.2791144659
  H        12.6649015548        2.1428357164       -2.0111020889
  C         6.0692589242        7.1163513487       19.9668405798
  N         6.1091204307        8.4669911417       20.1137531216
  O         6.8682296727       10.2128342948       18.8945150950
  H        17.4523733607        6.8318636775        5.5143418334
  H        16.5869962907        6.5951462807        7.0432824947
  C        18.2473010149        5.2694786458        6.6944611970
  H         4.0305081085        6.0215457655        2.9753058689
  H         5.1799727529        7.1148767156        3.6625016444
  C         5.0236910001        7.3578364043        1.5024946166
  C        12.7040631777       -0.7544605242       -2.4704716593
  S         5.4959406286        6.0863096503       21.2843415304
  C         6.0614275008        9.1672180030       21.3945114954
  H        17.9803287925        4.9096031386        7.6439408287
  H        18.4564664641        4.3695024473        6.0683094204
  C        19.4551578943        6.1588066055        6.8535272951
  H         4.9035108080        6.7972877412        0.6472751449
  H         5.9961793943        7.8420539314        1.4191671403
  C         4.0142600587        8.4699658048        1.5574163550
  H        12.8697703403       -1.8148312122       -2.3875135279
  C        13.1201930265       -0.4035876048       -3.7615293757
  H         5.2664024851        8.7108082487       21.9910978249
  H         5.9400488691       10.2424378313       21.2428895705
  C         7.4686884780        9.0518872009       21.9874087729
  H        19.9770870178        6.0022901396        7.8701494655
  H        19.0442635784        7.2143207597        6.8198494765
  C        20.4620022680        5.8807839755        5.7989636486
  H         3.8804514873        8.9379954230        0.6153732006
  H         3.0454852648        8.1413048098        1.8989935173
  C         4.3999317916        9.4115696039        2.6999042227
  S        13.5247892500        1.2286647318       -4.2739974675
  C        13.3713441373       -1.4327841820       -4.7893755889
  H         7.6303166513        8.0217143377       22.2826999313
  H         7.3809245355        9.6355429578       22.9102055234
  H         8.1228289357        9.6290996815       21.4313309026
  H        20.0156866471        5.6122658444        4.8907867905
  H        21.1246740475        6.7014373816        5.4625579271
  H        21.1085055629        5.0323241989        6.0666609655
  H         3.9082912786        9.0928358914        3.5484997145
  H         5.4302967744        9.4556622250        2.9857542306
  H         4.0348182046       10.3697572242        2.5325052300
  C        13.9540021911        0.5355743354       -5.8334241799
  N        13.8272237241       -0.8080457395       -5.9064274303
  O        13.1742407053       -2.5884397642       -4.5763930295
  S        14.7741074396        1.4591427536       -7.1433394249
  C        14.1121152800       -1.4798802940       -7.1792165072
  H        14.5574982592       -2.4060923103       -6.8462427612
  H        14.7266019716       -0.9107446554       -7.9016961628
  C        12.7825450006       -1.6519192207       -7.9064930188
  H        12.8195286745       -2.5300916970       -8.5090733014
  H        12.7203854710       -0.8420164030       -8.6968147133
  H        11.8976539929       -1.5671949301       -7.3163839417
