352
 i =     8800, time =     4400.000, E =       151.0518946205
  H        11.2717170786        4.4441856723       31.9735057214
  C        10.8047327821        5.4683189919       31.8922478752
  H         9.7313995656        5.2560409939       31.8785642915
  C        11.0986419492        6.2049760611       30.5752353615
  C        11.2024817286        6.2667208705       33.0795489759
  C        10.8554291179        5.2225700717       29.4367403131
  H        10.6036118804        7.1988346663       30.4272918490
  H        12.1510506032        6.5859697322       30.5259476521
  H        12.0403320516        6.9778122989       32.8799624223
  H        10.3876035667        6.9803504347       33.5102072929
  H        11.7042078417        5.7234551870       33.8810935939
  C        11.3120698546        5.9154207382       28.1120351964
  H         9.7693963058        4.9622683289       29.4229641336
  H        11.4091358361        4.3113337502       29.6040579483
  C        11.1609885115        5.0317038969       26.8534012832
  H        10.5857053716        6.7506648233       28.0388538914
  H        12.3859114174        6.1904711190       28.0828837347
  C         9.7970711121        4.5435525224       26.6733388807
  H        11.8632725573        4.2633796917       26.9061740803
  H        11.4097130210        5.5272839576       25.8975017247
  C         8.8417139716        5.6053983944       26.1264213646
  H         9.8714899396        3.8465430106       25.8255908030
  H         9.4096502947        4.0681429671       27.6123338400
  C         7.5157449796        5.0307930632       25.5650014445
  H         8.6548467665        6.2573958096       27.0119204048
  H         9.2906826751        6.2114557129       25.3229370400
  C         7.1201633979        3.6966547827       26.1805882440
  C         7.7886644839        4.3684418597       24.2984559859
  C         6.3168166467        6.0445469314       25.4939031730
  C         7.3192467523        2.5950173694       25.4098493048
  C         6.6106126822        3.3598284878       27.5001951738
  C         7.6930752709        3.0290770933       24.1267848927
  C         8.1160895672        5.0173430220       23.1099710576
  H         6.6198908033        6.9915967259       25.0403297932
  H         6.2007213045        6.2584341606       26.5490112068
  C         5.0405056974        5.3558950584       24.8639063497
  S         6.8837109945        1.1453323093       26.2310752912
  C         6.4232709300        2.0125162139       27.6124036265
  H         6.5569710405        4.2195328581       28.1941284678
  C         8.0330276984        2.3731563843       22.9182633071
  H         8.1806804148        6.0321723510       22.9648108381
  C         8.4653118963        4.3760968092       21.9166819453
  H         5.4001820395        4.9397944853       23.8966311102
  H         4.7483636880        4.5471892589       25.4950808373
  C         3.9264047174        6.4506220938       24.5909307496
  C         5.9008878215        1.3180398318       28.8268396117
  C         8.4347271893        3.0340900114       21.7205321722
  H         8.2384159993        1.2284564561       22.9024377969
  C         8.8982667193        4.8385633131       20.6715094702
  H         3.0852480919        6.0666647763       23.8661005344
  H         4.3404656560        7.3060081858       24.1092426069
  C         3.1918558331        6.8575997101       25.8309143974
  C         5.9408559320       -0.0595982496       29.0907500147
  C         5.4600021975        2.1256343606       29.9571767296
  C         8.9234010817        2.4723586452       20.4134629909
  C         9.1523483314        3.8191391403       19.7916693445
  S         9.2577699135        6.3999947668       19.8650882412
  H         2.5074005006        7.6987957526       25.4811334390
  H         3.7611817807        6.8102727371       26.7849891870
  C         2.0682231143        5.8269970943       26.0757876196
  N         6.3703309440       -1.0312552969       28.1903815076
  C         5.7369787910       -0.6368960696       30.3209315933
  C         5.1910645463        1.5932164960       31.1717182536
  H         5.2876111349        3.1638268021       29.8219883907
  C         7.8111817969        1.6656210465       19.6526886368
  C        10.2501705727        1.6746065938       20.5051954483
  C         9.4597681222        4.2698279793       18.4752910828
  C         9.5885583362        5.5790345994       18.4054214131
  H         1.4515325145        5.5269469153       25.1905566521
  H         2.5676873441        4.9458961128       26.2857098690
  C         1.2472209830        6.4080268919       27.2696051154
  S         6.3524731226       -2.5329547279       28.8552009055
  N         5.8408770212       -2.0775126799       30.3255588794
  C         5.3293261049        0.1249038697       31.4574164403
  H         4.7928656822        2.2162825917       31.9711718689
  H         7.7094815306        0.7340693393       20.2113408400
  H         7.8718557428        1.4062280937       18.6376035619
  C         6.4726024969        2.3675660651       19.5595691234
  H        10.6651234935        1.4560487055       19.5653411146
  H        10.1102563749        0.7487242648       21.0776145266
  C        11.4301224630        2.4376065277       21.2600645039
  H         9.6057215543        3.5810313304       17.7132457375
  C         9.8739027037        6.2984576677       17.0970432877
  H         0.3000611405        6.6341857983       26.7468245514
  H         1.6009378317        7.3875217865       27.5096355209
  C         1.3216534557        5.3847811015       28.4919491837
  C         5.0351560672       -0.6352211668       32.6482786735
  H         6.6244223625        3.1657979568       18.8244170033
  H         6.2154881946        2.7164831825       20.6230502557
  C         5.3598158381        1.5116414244       18.9503482025
  H        11.2050832569        2.7325064569       22.2878445719
  H        11.8294538732        3.1915849994       20.5844789224
  C        12.5909118526        1.4354412265       21.2140573260
  C         9.9785747978        7.6994742386       16.9458619982
  C        10.1866112093        5.4419965081       15.9468169923
  H         0.4899522391        4.6498296011       28.5089096505
  H         2.3329168701        4.8836773371       28.6388150350
  C         0.9512404767        6.0179702034       29.7481445850
  H         5.1058444881       -1.7066937865       32.4626707105
  C         4.7812570579       -0.2519251772       33.9344893633
  H         5.2879378787        0.7401098587       19.7072005974
  H         5.6487160895        0.9908970812       18.0068480688
  C         4.0278111668        2.3074833352       18.7341381962
  H        12.3048456715        0.6519719802       21.8857321072
  H        12.6337594557        0.8413382868       20.2917757468
  C        13.8903415708        2.0638636011       21.6750392370
  N         9.6441199067        8.6168935535       17.9262584468
  C        10.3300639155        8.3353933587       15.7547943993
  C        10.4623635781        6.0961076719       14.7302082038
  H        10.1204073987        4.3235761568       16.0416265576
  H         0.8981206248        5.3569556162       30.6306343447
  H         1.8178016260        6.5111910050       30.1319621431
  H         0.0862449900        6.6944576008       29.7762241766
  S         4.6452060376        1.4171146873       34.2965148412
  C         4.7743539198       -1.2413224360       35.0596747212
  H         3.8441677593        2.9881295999       19.6233400968
  H         4.0646518792        3.0090079794       18.0147793743
  C         2.7468268061        1.4401332054       18.5351888391
  H        13.8680875856        3.0475916296       21.3902824158
  H        14.8030352076        1.6373216057       21.2785975090
  C        14.0358835983        2.0050723241       23.1793330252
  S         9.9197663941       10.0537284486       17.3685675235
  N        10.4667179013        9.7377785449       15.8709313663
  C        10.4613507473        7.5546064397       14.5447120071
  H        10.4475155297        5.5478583341       13.7837404140
  C         4.3588776424        0.8427889571       35.9616897856
  N         4.4847058700       -0.5431010437       36.1330396961
  O         4.9024935078       -2.4170911784       34.8675851191
  H         2.0291814449        2.1632193798       18.7103349918
  H         2.6718608482        0.7409704738       19.3472293249
  C         2.7058691926        0.8620852963       17.1032367724
  H        13.0696319367        2.3540299913       23.6674435133
  H        14.1786840996        1.0323181875       23.6319522337
  C        15.2111501899        2.9702699838       23.6565314150
  C        10.7842542916        8.3014437731       13.3705696739
  S         3.8379179190        1.7856199899       37.4108278429
  C         4.5478806166       -1.2066227733       37.4003607665
  H         1.8520142431        1.2921280932       16.6555561675
  H         3.6939243254        1.2027776379       16.6818327910
  C         2.7110426852       -0.6362672593       17.0862489514
  H        14.9030499706        3.0983665327       24.6988961432
  H        15.1530213349        3.9165616219       23.2232845037
  C        16.6696090412        2.5041337350       23.5170446385
  H        10.5841606742        9.3612024925       13.6040794271
  C        11.3341948485        7.9956579757       12.1310142336
  H         3.9128676357       -0.7960413863       38.1795782309
  H         4.2023261836       -2.1256741383       37.1417617984
  C         5.9777464644       -1.3451375727       37.8244608290
  H         3.5649050956       -1.0185197270       17.5900056787
  H         2.9308890919       -0.8902176961       16.0626319647
  C         1.3734608247       -1.1351433951       17.7459471540
  H        17.3936769755        3.0181563492       24.1260997303
  H        16.8332356788        1.4742925683       23.6901918809
  C        17.2712472843        2.8763406746       22.1734871614
  S        11.8117528918        6.4749003079       11.5029966239
  C        11.4818731488        9.1550934782       11.2647921663
  H         6.7686160965       -0.9287085590       37.1731394445
  H         6.0471431659       -0.7795746889       38.7407812475
  H         6.2674794704       -2.3573195823       38.3003878519
  H         1.1984800678       -2.0564280182       17.2744446419
  H         0.5990164101       -0.4007703944       17.5652436036
  H         1.4190346992       -1.2114192174       18.8087998536
  H        17.3904709596        3.8877122709       21.9864837414
  H        16.7723283719        2.4389215816       21.3532306225
  H        18.2056758968        2.4604840813       22.2260705785
  C        12.1952840510        7.3521315925        9.9974859071
  N        12.0724735870        8.7228128095       10.0758494056
  O        11.1603830732       10.2506242301       11.4871934357
  S        13.0376677958        6.7602203811        8.5498750109
  C        12.2296000286        9.6731098472        8.9908592791
  H        12.3533568473       10.7103337086        9.3633121690
  H        13.0823747121        9.4799686456        8.3267031318
  C        11.0626570093        9.6301639938        8.0838234091
  H        11.2640979271        9.7254188630        7.0113695743
  H        10.4586354092        8.8118052830        8.0633086363
  H        10.2844822018       10.2919272987        8.5170217574
  H         4.3680906151        1.8301961442       13.2359530127
  C         3.6890903701        2.6244541043       12.9071332502
  H         4.2450553405        3.5142379393       12.9699170059
  C         3.0345771444        2.4511176382       11.5404634149
  C         2.6958262004        2.8384305511       14.0481360126
  C         4.0416522746        2.6528476485       10.4043409351
  H         2.1373833199        3.0795147659       11.4777955260
  H         2.6758012119        1.4671157532       11.5461187712
  H         2.3146360745        1.7578759631       14.1713434015
  H         1.8872579137        3.5875648627       13.8161665651
  H         3.2049188885        3.2088047287       14.9488320134
  C         4.5133858070        1.2749149786        9.8319434442
  H         3.5558008097        3.2264721381        9.6650869465
  H         4.8623136199        3.2762186571       10.6939732236
  C         5.4912870122        1.3789439173        8.6475933640
  H         3.7406312422        0.5581154327        9.6775970707
  H         5.0196945037        0.8551950670       10.6938512892
  C         6.6860864373        2.3968387200        8.6537790824
  H         4.9071373636        1.7319822605        7.7733240653
  H         5.9245094013        0.4201121619        8.4475167546
  C         8.0034841381        1.7168036105        9.1461222977
  H         6.8010637420        2.7052891526        7.6272207678
  H         6.4244815230        3.3956500895        9.1362457302
  C         9.2189375637        2.6848054305        9.3339665828
  H         8.3937999774        0.8109568753        8.5299466921
  H         7.9216220541        1.2889567233       10.1016735399
  C         8.7920081515        4.0077465636       10.0678291008
  C         9.5916851751        3.4161984120        8.0964166780
  C        10.4081290381        2.0810879366       10.1343023204
  C         8.9229604196        5.0875726375        9.2325297931
  C         8.3912151763        4.3367458012       11.4127193603
  C         9.4134905011        4.7348640990        7.9649528966
  C        10.1320883830        2.9282529504        6.9501885181
  H         9.9705032728        1.5533502614       10.9608083048
  H        10.8567081815        1.1982164242        9.5842485894
  C        11.7061620983        2.9723356953       10.3435708968
  S         8.4497807119        6.5384101575       10.0252436380
  C         7.9777728174        5.6426666978       11.4414219346
  H         8.3118025287        3.5766200451       12.1688924944
  C         9.7664075938        5.4020129944        6.8386572810
  H        10.5138047166        1.9187358627        7.0744065235
  C        10.4769879998        3.5755324947        5.7897026040
  H        11.5134057500        3.9850552145       10.4301725614
  H        12.3200580930        2.7279409387        9.4107773303
  C        12.6655417696        2.6097176499       11.4087142973
  C         7.5073132917        6.3583884791       12.6425163037
  C        10.3610409027        4.8865506253        5.7061486956
  H         9.7062246170        6.4920621120        6.8195484684
  C        10.9584361318        3.2470856656        4.5622668770
  H        13.4736108935        3.2790252134       11.5089250286
  H        13.0081706212        1.5965750425       11.2259813584
  C        12.0730660387        2.3634092369       12.7381224449
  C         7.4212078341        7.7926865216       12.8889531847
  C         7.2313348858        5.5293639048       13.8078777962
  C        10.7676684282        5.6545554261        4.5357583800
  C        11.1591160229        4.4062124823        3.7269826953
  S        11.0673015710        1.7539864807        3.7200923263
  H        11.5597759017        3.2637013400       13.0658379689
  H        11.3775476439        1.5120584511       12.7130879558
  C        13.1503746266        2.0994944316       13.7813610518
  N         7.7451628557        8.7743832825       11.9914134350
  C         7.0952625840        8.3842099418       14.1257702588
  C         6.7816006227        6.1217428345       14.9654092142
  H         7.2605556573        4.4888437398       13.8168632877
  C        12.1474059021        6.3957136436        4.8148414467
  C         9.8087405958        6.5610950123        3.8007310479
  C        11.6385013688        4.0239578711        2.4184398978
  C        11.5117499675        2.5890624560        2.2995382937
  H        14.0005294699        2.7491614337       13.6839861813
  H        13.5240004720        1.1064528530       13.5919634679
  C        12.5031546035        2.1844058226       15.2134851602
  S         7.7356234723       10.2635294463       12.7453207445
  N         7.2645599021        9.7452424133       14.1628448539
  C         6.7388955806        7.6078264193       15.2121805952
  H         6.3193967584        5.6055896172       15.7230994953
  H        12.0488612599        7.0104100456        5.6746217157
  H        12.3157135719        7.1147144684        4.0235478788
  C        13.4185458315        5.5564316366        4.8992748033
  H         9.6830533778        7.3100124853        4.4737300568
  H        10.2634236374        7.0287729363        2.8520833099
  C         8.4526157458        5.7794315156        3.5044779221
  H        11.8667956119        4.8208310751        1.6766742778
  C        11.7969883114        1.9213580974        1.0211775426
  H        11.9728393500        3.0767696933       15.3183411085
  H        11.7944543944        1.3765814573       15.3443637106
  C        13.5938382484        2.0527033304       16.2936211835
  C         6.5322215725        8.3337555906       16.5235955043
  H        13.2913055241        4.6502226298        5.5081260936
  H        13.6445768202        5.1478028316        3.9225843535
  C        14.5815473779        6.3725499283        5.3400612282
  H         8.0763635115        5.3791842749        4.4161505842
  H         8.7058510302        5.0145902580        2.7201679364
  C         7.3383096387        6.6933880059        3.0129959278
  C        11.8009696714        0.4930431226        0.7859815499
  C        12.0558292044        2.6792535838       -0.1940999826
  H        14.4690935369        2.6795449699       16.0300305356
  H        13.7247041962        0.9788082509       16.2176174430
  C        13.1128877388        2.4399200426       17.7746225792
  H         6.7832116923        9.3875894803       16.5276472028
  C         6.2557433613        7.8575161505       17.7827797493
  H        14.3848283886        6.8084420468        6.2783810946
  H        14.6251022933        7.2322303397        4.6591414785
  C        15.9261387488        5.5476593880        5.2395472204
  H         7.1700321561        7.4378381559        3.8264242830
  H         7.7190686152        7.1733696706        2.1480647547
  C         6.1260861966        6.0344582455        2.4729413626
  N        11.6481378093       -0.5052403984        1.6665761709
  C        12.0987980052       -0.1372124591       -0.4250199132
  C        12.2877938685        2.0155414053       -1.4405073438
  H        12.1659441504        3.7432420942       -0.1172249371
  H        14.0528101722        2.9431464499       18.2500579698
  H        12.7984581075        1.5131075430       18.3049869571
  H        12.3647932111        3.1545749924       17.6301022016
  S         5.9510230257        6.2343093740       18.1710099942
  C         6.3390060367        8.8044411501       18.9053292532
  H        15.8406123057        4.6537006558        4.6487602083
  H        16.6065753424        6.1676598697        4.7453843326
  C        16.4936844662        5.2287680604        6.6014669553
  H         5.4547508814        5.8636433172        3.3129735019
  H         6.3994944797        5.0023318920        2.0196566756
  C         5.3247716255        6.8467918854        1.3715686225
  S        11.7163601327       -2.0083811190        1.0281933485
  N        12.0730703890       -1.5525078552       -0.4343267349
  C        12.2158067892        0.5977843222       -1.5821369579
  H        12.4986728153        2.6330351641       -2.3558470827
  C         5.7904966369        6.8472577283       19.8925263502
  N         5.8463251881        8.1596087006       20.0527782021
  O         6.9094738180        9.9012392040       18.8371531542
  H        16.2060232808        6.0226450765        7.2381112305
  H        15.9469792183        4.3691050735        7.0479014317
  C        18.0856694305        4.9095451275        6.6271815169
  H         5.9414420465        6.8194213142        0.4372031113
  H         4.3105911306        6.3971611394        1.1388238379
  C         5.0496245908        8.2562623201        1.8043059582
  C        12.5689746953       -0.1298584332       -2.8107476262
  S         5.4940732471        5.8118137011       21.2312398583
  C         5.7311643785        8.8584239998       21.3932997698
  H        18.4131045183        4.5285691221        7.5866075845
  H        18.3581681946        4.1076190918        5.9357485877
  C        18.9340830201        6.1086741262        6.3365565319
  H         5.9307750203        8.8773459772        1.5892769499
  H         4.7079259709        8.4458194620        2.8618267483
  C         4.1356770998        9.0520013520        0.8057232033
  H        12.5961458691       -1.1716698414       -2.6332497095
  C        13.2039796760        0.1644499687       -4.0059126312
  H         4.9745852442        8.3030182802       21.9796267635
  H         5.3212961023        9.8457731367       21.1497460671
  C         7.0327164840        8.8585007379       22.1957303059
  H        18.5571043984        7.1391489501        6.6463598957
  H        18.9333933389        6.1283227797        5.2540063618
  C        20.3363574622        5.8546690500        6.7545055903
  H         4.1741518406        8.5259025977       -0.1976446299
  H         3.1197567560        9.1073851304        1.1599562545
  C         4.6323461703       10.5918571314        0.7833749224
  S        13.9395986788        1.6544623419       -4.4784909051
  C        13.3407217445       -0.9179624618       -5.0295313169
  H         7.4609295400        9.8868610116       22.4899755377
  H         7.8310851220        8.4490489377       21.6166732571
  H         7.0450548062        8.3412580712       23.1368876755
  H        21.0240728746        6.5332928945        6.2168069474
  H        20.6029057870        5.8591864387        7.8378046768
  H        20.7073109080        4.8675599813        6.3178095469
  H         3.8683098697       11.0176774206        0.2125167364
  H         4.5828090229       10.8855407315        1.8392395775
  H         5.6033138450       10.5952043659        0.3665897555
  C        14.3343924992        0.8366997086       -5.9821863197
  N        14.1264683150       -0.4551451337       -6.0087558394
  O        13.0765155043       -2.1091637375       -4.7838233494
  S        15.2056274680        1.7135763529       -7.3323355966
  C        14.4053113461       -1.3380461138       -7.1129628517
  H        14.5602909274       -2.3138878476       -6.7976292081
  H        15.2588202869       -1.0088021025       -7.7107707826
  C        13.3184507319       -1.3111789209       -8.1688297224
  H        12.3645550897       -0.8594666154       -7.8273279938
  H        13.1147149966       -2.2674239613       -8.6342435256
  H        13.7767297723       -0.6236941180       -8.7903081590
