352
 i =   109000, time =    54500.000, E =        98.7492124642
  H         9.8124440373        5.2623184128       32.0687506929
  C        10.7387867434        5.8072972376       32.3301797071
  H        10.3385754256        6.7572427308       32.7525844778
  C        11.6799646567        6.0688255535       31.1625534684
  C        11.4697812824        5.0964519967       33.4588443049
  C        10.9210684201        6.6246180474       29.9774117262
  H        12.5677739571        6.7322493412       31.3929064964
  H        12.0646300276        5.0786407702       30.9182502743
  H        12.0890278720        4.3274874244       33.1516315059
  H        12.1749569008        5.7534730227       34.0077762586
  H        10.7883268637        4.7241994448       34.2525512467
  C        10.3238271856        5.5417376522       29.0743269458
  H        11.7651204625        7.0564774650       29.3960688542
  H        10.2150408760        7.4365562769       30.1921541274
  C        10.8926246925        5.7134980692       27.6368664768
  H        10.5565474678        4.6018893112       29.3682107380
  H         9.1961427922        5.7164938378       29.1284872740
  C         9.8413755684        5.0859875409       26.7034089326
  H        11.7779045121        5.0034665703       27.4334738098
  H        11.1385921012        6.7130140473       27.2824763727
  C         8.8266495911        6.0689569898       26.3444260842
  H        10.2757475610        4.8061521594       25.8029406961
  H         9.3936489743        4.1333112599       27.0667421506
  C         7.6019397430        5.4060862523       25.6080670100
  H         8.3705665947        6.4771565800       27.2683022050
  H         9.2869978760        6.9047803914       25.7907380498
  C         7.1563980058        4.1039220858       26.2967123369
  C         7.8177055536        4.6694258763       24.3019993523
  C         6.4867508921        6.4903776304       25.4856765526
  C         7.3044098689        3.0038361324       25.4192441494
  C         6.6047147544        3.6732476033       27.5630213925
  C         7.8200134179        3.3496526546       24.1895180012
  C         8.1329435926        5.2483279207       23.0948947989
  H         6.8614605285        7.2400400351       24.7876994410
  H         6.3133130305        7.0846852955       26.4241608508
  C         5.1605058668        5.9998715386       24.8684889216
  S         6.7988609665        1.5371637033       26.0371327066
  C         6.3007699085        2.2892839629       27.5374210727
  H         6.4240581689        4.4062769161       28.3524012252
  C         8.1238387534        2.6559903840       23.0761838707
  H         8.0914886713        6.2968159430       23.0312736651
  C         8.4811024640        4.6274940507       21.9601241421
  H         5.3164352103        5.8754618768       23.8156773730
  H         4.8736383645        5.0220917072       25.3385785700
  C         4.0145863683        6.9380410473       25.2020424662
  C         5.8790296822        1.5412152498       28.7981791068
  C         8.5503224801        3.2766661996       21.8874623910
  H         8.1553785928        1.5440714211       23.0775937191
  C         8.9553594753        5.0299721732       20.6869516253
  H         3.2294510179        6.7719293624       24.4596680071
  H         4.2609488757        7.8692324090       24.9081375156
  C         3.4679684962        6.7554046142       26.6409893450
  C         5.9114314977        0.1373287958       28.9646498999
  C         5.4151721064        2.3148927640       29.9759593952
  C         9.0157732488        2.5963224801       20.6747280693
  C         9.2521493698        3.9435188184       19.8883587460
  S         9.4815920982        6.5429249804       20.0586275116
  H         2.6763605635        7.5602969226       26.8843054137
  H         4.3339764002        6.7974830889       27.4065162423
  C         2.6510467422        5.4689038499       26.8572117431
  N         6.3227990399       -0.8207064257       28.0410372005
  C         5.5359252848       -0.4382449900       30.2060825223
  C         5.1381784953        1.7701192595       31.2264167510
  H         5.3420268577        3.4170997998       29.8313624041
  C         7.9303567619        1.8561345518       19.9716431039
  C        10.3817422261        1.8486840570       20.8450160619
  C         9.6150844167        4.3022439342       18.5991027080
  C         9.6079619275        5.6693508079       18.4950113280
  H         2.1881185610        5.1724218284       25.9026661512
  H         3.2847395890        4.6638254300       27.3070645115
  C         1.4394142441        5.5444491020       27.8583468343
  S         6.1485946722       -2.3431134392       28.6616975430
  N         5.6597016339       -1.8120444155       30.1701758920
  C         5.1611844171        0.2835323863       31.4072591020
  H         4.8420843123        2.3961846171       32.0691843669
  H         7.5828666816        1.2375339464       20.7409639389
  H         8.2982050375        1.2538591236       19.0610075867
  C         6.6541704743        2.6279971549       19.5217436873
  H        10.7086038350        1.4189282289       19.8782253561
  H        10.1628904935        0.9580323836       21.4687643084
  C        11.5758781073        2.6435803692       21.4838674692
  H         9.7714191871        3.5456824228       17.8559641439
  C        10.0727240395        6.3583796988       17.2508206979
  H         1.1141337607        4.5522154542       28.0676635227
  H         0.5885929555        5.9508368768       27.3110126347
  C         1.8496233383        6.2543803639       29.1652151895
  C         4.9239749120       -0.4466759091       32.5774875672
  H         6.8511924182        3.2264825179       18.6418521389
  H         6.1811221781        3.3355271818       20.2469503836
  C         5.6051892581        1.6477679517       19.0402595934
  H        11.1750022726        3.1493087668       22.3417098272
  H        11.8039048534        3.4572745985       20.8372546937
  C        12.8543798748        1.7971233227       21.6751402544
  C        10.1844371312        7.7366597584       17.0757124231
  C        10.2008555539        5.5157189607       15.9462044030
  H         2.3274950972        7.2198482759       28.9482514621
  H         0.9869380712        6.2805980660       29.8912261033
  C         2.9996611755        5.4981853547       29.9352708779
  H         4.7689653388       -1.5091227195       32.3847075435
  C         4.6508142344       -0.0991820759       33.8542477991
  H         5.1086495711        1.1785710108       19.8541157830
  H         6.0661087277        0.7774455302       18.5486234301
  C         4.6260097436        2.3857608514       17.9813034658
  H        12.6288307548        0.8722315672       22.1655309916
  H        13.1059043410        1.5732164728       20.5949274875
  C        13.9846095892        2.5447388118       22.4031489648
  N         9.9851408742        8.6968865575       18.0979682594
  C        10.4536710067        8.3384803231       15.8794544209
  C        10.4110123945        6.1419354324       14.7025847079
  H        10.2081609142        4.4355704179       16.0416338016
  H         3.3689301562        6.1428999714       30.6979473397
  H         2.6018085613        4.5398245403       30.1927858119
  H         3.9499684255        5.3101080495       29.3985514386
  S         4.5245981941        1.4959310679       34.5142599094
  C         4.4923691762       -1.1761930109       34.8395007484
  H         4.5566284022        3.4196990007       18.3052755779
  H         5.1549485185        2.5247332812       17.0325838593
  C         3.2445987577        1.6546150394       17.9070735127
  H        13.9318122782        2.3299722535       23.4401357062
  H        13.8742378196        3.6585649561       22.3424815894
  C        15.4161843653        2.2011134356       21.8461408469
  S        10.2305290168       10.1856300555       17.4184376269
  N        10.5427487445        9.7123270248       15.8909235674
  C        10.6362322695        7.6153191701       14.6240669246
  H        10.5902434508        5.4771707114       13.8685737000
  C         4.2398737607        0.7032009483       36.0874309951
  N         4.1576191846       -0.6370392857       36.0215840429
  O         4.6279662021       -2.3404225645       34.5970401429
  H         2.6338444032        2.0688884492       17.1495972753
  H         2.8387550948        1.7395149026       18.9383253438
  C         3.3750872224        0.1377598803       17.6003017864
  H        15.5746033643        1.1017706727       21.9158393741
  H        15.4823827939        2.3641085818       20.7992945230
  C        16.5432426772        2.9478738147       22.6013511243
  C        10.8592494600        8.3975349319       13.4189321773
  S         3.9829492910        1.3748605816       37.6554168830
  C         4.1256779449       -1.4692814721       37.2469221077
  H         4.2035213350       -0.0580024346       16.9448476123
  H         3.5047883619       -0.4299193517       18.4811855961
  C         2.2441111371       -0.5267241109       16.9478768879
  H        16.3552952326        2.8303094810       23.6538651426
  H        16.5958977472        4.0028602186       22.3850971164
  C        17.9210256518        2.3371686409       22.3559861925
  H        10.6784178776        9.4243770648       13.5672073334
  C        11.4007413204        8.0853621508       12.2107080424
  H         3.5174581189       -1.0643190387       38.0573095110
  H         3.6777998402       -2.3945898349       37.0073284687
  C         5.5020310090       -1.7666559294       37.8169592831
  H         2.0922422655       -0.0810056191       16.0105995479
  H         1.3502976945       -0.2735389750       17.3871260279
  C         2.4236335816       -2.0223876143       16.8407014064
  H        17.8571568129        1.6923950624       21.5147962151
  H        18.5990667949        3.1063507534       21.9165298882
  C        18.5399589973        1.7245963122       23.6471135520
  S        11.7200704129        6.5193491125       11.5737332120
  C        11.5696137950        9.1609482084       11.2481849843
  H         5.3968616698       -2.5999735121       38.4932439534
  H         6.1789173261       -2.0454387073       36.9704368817
  H         5.8875151258       -0.9376118499       38.4025366486
  H         2.5304307909       -2.4659977754       17.8226166276
  H         3.3890593899       -2.1057250097       16.3557463889
  H         1.6299990019       -2.5039201210       16.2390017804
  H        19.5421915804        1.3456278420       23.4248446343
  H        17.9463123864        1.0215257882       24.1660005286
  H        18.7080796020        2.4348714437       24.4658409833
  C        12.0952718067        7.2824803462       10.0711024037
  N        12.1470003474        8.6100868827       10.1517775735
  O        11.3427768781       10.3590115528       11.4954077146
  S        13.0208448843        6.4488799864        8.8570167880
  C        12.2956698721        9.4012215637        8.9367156713
  H        12.6170769360       10.4503846060        9.2246368757
  H        13.1510023813        9.1544738596        8.3392701864
  C        11.0118525952        9.6000751652        8.2153985803
  H        10.2706501238        9.9377757654        8.9326062682
  H        11.0262643934       10.3562918726        7.3893387155
  H        10.7637494439        8.6376638980        7.8445595022
  H         3.1372067793        3.5313514393       12.6514893782
  C         3.6255284572        2.5316753432       12.7077085501
  H         2.9985715163        1.8498284309       12.0810169132
  C         4.9668692903        2.6691458988       12.0673785334
  C         3.7143530728        2.1819038807       14.2961527530
  C         4.7118886516        2.9651286142       10.6309812575
  H         5.5816760259        1.7711391427       12.2891695266
  H         5.4322740840        3.5895974032       12.5263711804
  H         4.0670351436        3.1295717813       14.7445591354
  H         4.3965480561        1.3399278190       14.4614491075
  H         2.6842058528        1.9566305266       14.6547373538
  C         4.7054801657        1.7592548290        9.6693187512
  H         3.7177914481        3.4261690087       10.5390441225
  H         5.5283581347        3.6897505639       10.4334382126
  C         5.3184737324        1.9645150022        8.3253457689
  H         3.6982664631        1.3609719876        9.4644564493
  H         5.3241196711        0.9541171874       10.1134756786
  C         6.6954025485        2.5917317812        8.1497066084
  H         4.5920916901        2.4345391437        7.6685951972
  H         5.4070582051        0.9446304685        7.8783605475
  C         7.8312287880        1.9710549522        8.9890206324
  H         6.8690346286        2.6314406205        7.0417778540
  H         6.6041870022        3.6539374703        8.4278975543
  C         8.9843968787        2.8368052305        9.2129255639
  H         8.2383108569        1.0651958257        8.5054382020
  H         7.4328310455        1.6842064331        9.9979248820
  C         8.5767781028        4.1893742161        9.8411239318
  C         9.4008089077        3.5546241441        7.9832850675
  C        10.1006906967        2.0632627203       10.1171352856
  C         8.8898836752        5.2635641800        9.1084900853
  C         8.1556568452        4.5347932780       11.1145639879
  C         9.3508969293        4.8939063113        7.8565147650
  C         9.8378262395        2.9636222419        6.7859322738
  H         9.5767171221        1.7690498913       11.1026042519
  H        10.3943017291        1.1697852050        9.6360038908
  C        11.3632220273        2.9232651094       10.4587869065
  S         8.4897254211        6.7107752613        9.8509797920
  C         7.9785974584        5.8758495818       11.2729368963
  H         7.8747490630        3.7266234945       11.8401616439
  C         9.7537175863        5.5315048023        6.7026895318
  H         9.8850875925        1.8793862120        6.7873457566
  C        10.1754282385        3.5967478485        5.6105619992
  H        11.0095556209        3.8867972343       10.9791485623
  H        11.8804259169        3.3123819367        9.5455119450
  C        12.4981119083        2.2492467435       11.4055175207
  C         7.6284403296        6.6164992404       12.5711368194
  C        10.2273081229        4.9346407819        5.5284724564
  H         9.6787218920        6.6305091585        6.5961075053
  C        10.7446187620        3.1471812660        4.4378128127
  H        13.4138506009        2.8370878952       11.3905686952
  H        12.8655505323        1.3438739905       10.9992435266
  C        12.0595414659        1.9851581522       12.8738169117
  C         7.7193638910        8.0175165079       12.8031478365
  C         7.1543068893        5.7521965995       13.6508996786
  C        10.8220968721        5.5458799191        4.2808116954
  C        11.0335741361        4.2083029534        3.5744582861
  S        11.1134048413        1.6385992134        3.7104616487
  H        11.2655744649        2.7730827851       12.9930684473
  H        11.5924633458        1.0340155967       12.9985661886
  C        13.2396530951        2.0817490196       13.8818676690
  N         8.1068380027        9.0017702579       11.9060909997
  C         7.4657567671        8.5621347252       14.0580637858
  C         6.8818831330        6.3012332892       14.8744609161
  H         6.9098981015        4.7289283483       13.4422587853
  C        12.1476806881        6.2674490453        4.4067852506
  C         9.8115410204        6.3739312203        3.4580012530
  C        11.6234239302        3.7958784414        2.3564927115
  C        11.4640619571        2.4288785130        2.1922418529
  H        13.9303119372        2.8523746776       13.5775188525
  H        13.9819302103        1.2189783173       13.8615449220
  C        12.6333411390        2.3026435734       15.2216188101
  S         8.0559008536       10.5201868354       12.6739117721
  N         7.5312075201        9.9377315825       14.1468749938
  C         7.0550958634        7.7379918922       15.1579441093
  H         6.6443724125        5.6393656920       15.7435042803
  H        12.0458157778        7.1989571627        4.8996754386
  H        12.6051138510        6.3378877493        3.4494547160
  C        13.1539343755        5.4006881195        5.1423910437
  H         9.6552154890        7.2545022323        4.0488301182
  H        10.1115539488        6.7050444197        2.4349521813
  C         8.4925490580        5.6773635223        3.1454234317
  H        11.9253346115        4.5585748589        1.6297531185
  C        11.7288698072        1.6847108351        0.8924914924
  H        11.8822567014        3.0905895058       15.4240589373
  H        12.1660988523        1.3936332183       15.5309405560
  C        13.8268145072        2.3912513769       16.1502260872
  C         6.9970432463        8.3119734419       16.4650829183
  H        12.7569435165        5.2432870429        6.1403642893
  H        13.3132519046        4.3856959772        4.7227327469
  C        14.4217048631        6.1796369339        5.3647139030
  H         8.1698871727        5.1144182470        4.0229135402
  H         8.6498289467        4.9112992994        2.3652477178
  C         7.3304465006        6.6517967086        2.7044974103
  C        11.7785455839        0.2533300789        0.6859084697
  C        12.0555200935        2.4510674714       -0.3732103776
  H        14.4239070356        3.2271066309       15.7952205150
  H        14.4380265668        1.4768688398       15.9135684339
  C        13.3678680421        2.7958773709       17.6141265535
  H         7.2698417971        9.3348272178       16.4045394994
  C         6.8084556927        7.8438197064       17.7340443896
  H        14.2266354658        7.0513672504        6.0438971925
  H        14.8709308327        6.6381245715        4.4554694071
  C        15.6218179382        5.4356460251        5.9600826247
  H         6.9837932323        7.2095540289        3.6228524707
  H         7.6404017962        7.3728854894        1.9470089107
  C         6.1696074218        5.9064268174        2.0973594534
  N        11.6676308743       -0.7037095463        1.7357998737
  C        11.9802939402       -0.4056178723       -0.5138534637
  C        12.2502575626        1.8435346099       -1.5958833377
  H        11.9343755674        3.5373457267       -0.3357856815
  H        14.2125108793        2.8462563736       18.3704681037
  H        12.5342135151        2.1754959057       17.9761661146
  H        13.0187918777        3.8379756500       17.7832829663
  S         6.2526385891        6.2401228018       18.1910897214
  C         6.8066320070        8.8198433293       18.8176300206
  H        15.3850930775        4.7373719237        6.7520952467
  H        16.1445034911        4.8278135588        5.2058923400
  C        16.6157046685        6.3968754294        6.5017462691
  H         5.9863506378        5.0144081813        2.7159014519
  H         6.4613864996        5.3766571469        1.1966402846
  C         4.9372241503        6.8375104553        2.0656497563
  S        11.7321337038       -2.2511999077        1.0818832873
  N        12.0613117962       -1.8063319335       -0.4193715104
  C        12.2473540679        0.3600453955       -1.6843671638
  H        12.5653792248        2.4227766365       -2.4757626305
  C         6.1826154822        6.9623773590       19.8619789768
  N         6.3360468449        8.2771079591       19.9482816335
  O         7.0330828186        9.9813930147       18.6285222088
  H        17.0751401172        6.8512020688        5.6448825277
  H        16.1248729869        7.2182736127        7.0639725588
  C        17.6814286149        5.7576726923        7.3771072222
  H         4.2251650359        6.1432995382        2.4791719854
  H         5.0172697765        7.7206155251        2.7706593695
  C         4.6448351788        7.4160335457        0.6148870920
  C        12.6650427534       -0.4195861283       -2.8494504404
  S         5.4673462609        6.2144138159       21.1952417745
  C         6.2324173173        9.1300443707       21.1969931623
  H        17.1616896009        5.7099714843        8.2985699604
  H        17.8881975784        4.8255690504        6.9118041279
  C        19.0315766675        6.5021291277        7.6223302597
  H         4.5874596542        6.6187918118       -0.0966441210
  H         5.5126678977        7.9468948558        0.2578058875
  C         3.3788644741        8.2386449920        0.5396587352
  H        12.3501140573       -1.3889178143       -2.8803762127
  C        13.0635973503       -0.1112608545       -4.1284629057
  H         5.5786629806        8.6782996022       21.9955697111
  H         5.7078024193       10.1080796596       20.9540673961
  C         7.6225511154        9.2393425438       21.8332870312
  H        19.4171306811        6.0634352726        8.5643030707
  H        18.8615867167        7.4986821564        7.9176265327
  C        19.9770890826        6.5668982892        6.4487948930
  H         3.0918518982        8.3407036532       -0.5000530952
  H         2.6340211941        7.6298834166        1.1235463525
  C         3.6121606627        9.6881796667        1.2367137698
  S        13.6633315805        1.4703944522       -4.6258629179
  C        13.1717287902       -1.1938433913       -5.1360372164
  H         8.1369707416        8.2919071956       21.7755774154
  H         7.5757076318        9.4012490802       22.9011610546
  H         8.2926475431        9.9506682767       21.2638402240
  H        19.6918530768        7.2700834473        5.6466813439
  H        21.0640478752        6.6336915612        6.7727540408
  H        19.8979063993        5.5497374445        6.0123999900
  H         2.7525886205       10.3325598057        1.1175594214
  H         3.8513592009        9.5414440924        2.3438272013
  H         4.5460013709       10.1608171619        0.8307329965
  C        14.0819096774        0.5583142548       -6.1565691233
  N        13.8950525927       -0.7637319185       -6.1869863031
  O        12.7773193399       -2.3244849741       -4.8229921535
  S        15.0137675224        1.1718581010       -7.5451787296
  C        14.0554282041       -1.6043045028       -7.3165558126
  H        13.9616220015       -2.6712740098       -6.9139674023
  H        14.9502324073       -1.4888612677       -7.8129370811
  C        12.9397443531       -1.5512973239       -8.3118947214
  H        12.6426327712       -2.6119696137       -8.2830534910
  H        13.2644459800       -1.2399267851       -9.3674766667
  H        12.0811922683       -0.8962196063       -8.0420450779
