352
 i =   115600, time =    57800.000, E =        99.8117714820
  H        10.1815865711        4.2181231330       31.8026045676
  C        10.1400373338        5.2037513384       32.1585382992
  H         9.1587618356        5.6546040432       31.9523552310
  C        11.1323760679        5.9582965019       31.3055395236
  C        10.4525323253        5.1802377337       33.6238503996
  C        10.6418501495        6.4609998455       29.9582225157
  H        11.6263809680        6.7495493329       31.8847865942
  H        11.9635805229        5.3180132034       31.1229816775
  H         9.9893014395        6.0155923650       34.1221247156
  H        10.1545323247        4.3006159420       34.1798817089
  H        11.5325919924        5.2922276122       33.8671265217
  C        10.1361877719        5.2700833311       29.0812901593
  H        11.4906508991        6.9587643123       29.4567325678
  H         9.8856933050        7.2192635594       30.0550967883
  C        10.1562863114        5.6852071452       27.6271212998
  H        10.5712916821        4.2597401782       29.3373778734
  H         9.1526083752        5.0397469426       29.4378416111
  C         9.1600416668        4.9299013164       26.6887234676
  H        11.1940653736        5.4793786814       27.1674802590
  H        10.2474489728        6.7783348021       27.5755451277
  C         8.0127124057        5.7580885500       26.4199387068
  H         9.6153903533        4.6623606541       25.7281152823
  H         8.8998388144        3.9328250175       27.1545885589
  C         6.8198950367        5.0697383352       25.6509382258
  H         7.6327096825        6.1470087936       27.3951696475
  H         8.3752949614        6.5747550556       25.8176321491
  C         6.3598042375        3.7717672376       26.2522102627
  C         7.2674235657        4.4045859899       24.3360446925
  C         5.6024087366        6.0054594358       25.4636424210
  C         6.5623110374        2.6740884606       25.4368727990
  C         5.9018694134        3.3619944484       27.5110020306
  C         7.1451505524        3.0920771454       24.2755637929
  C         7.8715625243        5.1227798178       23.3145411645
  H         5.8081924050        6.8394966676       24.7909301499
  H         5.5018213584        6.4048028558       26.4647744523
  C         4.2912838702        5.5071257110       24.8824895568
  S         6.1850061749        1.1503577077       26.1320462326
  C         5.8514088093        2.0078015794       27.6550721695
  H         5.6721937033        4.1487234152       28.2680999881
  C         7.5430560291        2.4335728042       23.0779822988
  H         7.9293981435        6.1908637912       23.3848196115
  C         8.3848899346        4.4707273075       22.2144906883
  H         4.3136135596        5.6266891215       23.7688317064
  H         4.1438787686        4.4870499246       24.9406434058
  C         3.0690193692        6.3842669205       25.1114758499
  C         5.4758505384        1.2865806170       28.9129731734
  C         8.2643398424        3.1265434351       22.0206798140
  H         7.4621698680        1.3650560595       23.0458352499
  C         8.9249319748        4.8742273408       20.9955895902
  H         2.2088343226        5.9757840634       24.4870348299
  H         3.2733157931        7.3591879181       24.6706802472
  C         2.5310979316        6.4329559283       26.5237889874
  C         5.4753287788       -0.1117346146       29.1406219035
  C         5.0906257068        2.0888898680       30.0918665837
  C         8.8109114028        2.3992242032       20.8368350930
  C         9.1722204965        3.7457063853       20.1533312876
  S         9.3175060309        6.3058178513       20.2294948384
  H         1.5194908278        6.8675043530       26.4343789588
  H         3.1174190560        6.9432623931       27.2555283151
  C         2.3418143666        4.9111910091       26.9564847877
  N         5.7770068848       -1.0741397462       28.2040685720
  C         5.1792761519       -0.6737697904       30.3790011340
  C         4.7928872530        1.5565325002       31.3271518904
  H         5.0636780152        3.1503056804       30.0357065467
  C         7.7673834753        1.6381608349       19.9715906078
  C        10.0394888911        1.5101462730       21.1050250348
  C         9.4768703022        4.2041912432       18.8422956054
  C         9.6760850635        5.5414742647       18.7585787422
  H         1.9335335618        4.1416087463       26.2852236827
  H         3.3061860727        4.4775677262       27.2363897600
  C         1.2639726587        4.8244099993       28.0783810558
  S         5.6227591498       -2.5531199472       28.9077212147
  N         5.2663263975       -2.0686548496       30.3846310474
  C         4.8188621455        0.0372894916       31.5056492971
  H         4.5355287325        2.2497535612       32.1297764283
  H         7.1640354691        1.0607704744       20.7312274697
  H         8.2019082693        0.9547672229       19.2576831684
  C         6.7637372352        2.5662003249       19.3440962533
  H        10.5864899956        1.1468081794       20.1997778490
  H         9.7624047177        0.6042120498       21.6243292510
  C        11.0874872855        2.2800916887       21.8654818114
  H         9.5082300225        3.4578958002       18.0928192034
  C        10.0592404840        6.2887542394       17.5030034730
  H         1.1222346373        3.8411489414       28.4304496161
  H         0.3152311951        5.0412264330       27.6283832295
  C         1.5251957340        5.6793162746       29.3648226209
  C         4.4832458380       -0.6145060587       32.7087039249
  H         7.0446786952        3.2881210316       18.5890112723
  H         6.5462536863        3.2719768983       20.1599055581
  C         5.4813516006        1.8813240656       18.8678035710
  H        10.6236843624        2.4890816035       22.8288451259
  H        11.2656420029        3.2165584388       21.2776242017
  C        12.3401014319        1.5212427521       22.1556131666
  C        10.0216653786        7.7255736819       17.3120048684
  C        10.1450875592        5.5498896919       16.2154607018
  H         1.5062245900        6.7357722829       29.0981472544
  H         0.6753055991        5.5705131907       30.0605755317
  C         2.8686913970        5.3372897916       30.0428486434
  H         4.5438913658       -1.6551098429       32.6855451471
  C         4.2816742027       -0.2118499025       33.9890110674
  H         4.8448680882        1.3752191389       19.6447491648
  H         5.5931970681        1.0435439689       18.1782980234
  C         4.6337468783        2.6813763607       17.8910568358
  H        11.9522519122        0.5463707333       22.5844825937
  H        12.8234886124        1.3338629915       21.1901011569
  C        13.2044348218        2.0446103960       23.3571627585
  N         9.6643993746        8.5536789993       18.2835756187
  C        10.2230424097        8.3744490088       16.0956710553
  C        10.4965940187        6.1604685609       15.0203365574
  H        10.2764676280        4.4597124742       16.3469077188
  H         2.9308218501        5.6777135083       31.1179942126
  H         3.0789664557        4.2670887259       30.0285726323
  H         3.7789426003        5.7471401231       29.6413978937
  S         3.9715747428        1.3831463762       34.5143244659
  C         4.2186395060       -1.2886181234       35.0139269664
  H         4.7412765562        3.7564861494       18.0941970866
  H         5.1649944444        2.5075411117       16.8957170351
  C         3.1418352009        2.3727422208       17.7864597598
  H        12.9046114988        1.5991898380       24.2901505006
  H        13.0786963661        3.0692880755       23.5277475776
  C        14.7333428753        1.7895642812       23.2095748439
  S         9.8125994667       10.1086481282       17.7874629590
  N        10.1523011130        9.7753110485       16.2490380623
  C        10.4736070140        7.6569503393       14.9454791070
  H        10.7850997522        5.5544663449       14.1551695077
  C         3.6449941861        0.6379015544       36.0620337118
  N         3.7417166537       -0.6773581285       36.1450580473
  O         4.4180153371       -2.4740037381       34.8050056469
  H         2.5120478403        3.1087935246       17.2566205274
  H         2.7794169955        2.5745545761       18.8273427869
  C         2.8131906786        1.0030750835       17.2223760593
  H        15.2369351122        1.9869054310       24.2056822553
  H        14.8664195347        0.7113575163       23.0620509062
  C        15.3891739234        2.5509928889       22.0334020386
  C        10.6906304853        8.3514410553       13.7475696958
  S         3.2134517304        1.5022291202       37.5892494136
  C         3.5957423017       -1.4279950488       37.4098038013
  H         2.0466938012        1.0895078089       16.5125097202
  H         3.6771251841        0.5210964915       16.8415219406
  C         2.3773392121        0.0638158952       18.3734037821
  H        15.5933056810        3.5903754355       22.3935176345
  H        14.7171200025        2.5360890405       21.1641164814
  C        16.7394045479        1.9747911053       21.4878749046
  H        10.6575204151        9.4181650767       13.8540260956
  C        11.1503729542        8.1008788728       12.4490503345
  H         2.7597219116       -1.0517834376       38.0174280741
  H         3.1693816892       -2.3951603257       37.2297556018
  C         4.9191083996       -1.6588729519       38.1588480198
  H         1.7178578597        0.6765915744       19.0395239443
  H         3.1587980826       -0.3274325309       18.9961264460
  C         1.4102547431       -1.0355318975       17.9906288164
  H        16.4967226536        0.9746584706       21.0818436587
  H        17.1486016037        2.6412558963       20.8018285224
  C        17.6516901713        1.7939448189       22.7314208633
  S        11.6747732169        6.6037401208       11.8522711719
  C        11.1688434049        9.2062931883       11.4405722986
  H         4.7686405625       -1.5653488926       39.2648373558
  H         5.1855268790       -2.6252981994       37.9597472002
  H         5.8033443450       -1.0465341398       37.9174861419
  H         0.7581760541       -0.7665922114       17.1871575217
  H         0.7437133219       -1.2298366641       18.8510148643
  H         1.8942206086       -2.0013905326       17.7895278609
  H        17.2357422125        1.0598545609       23.4447189758
  H        17.5333626651        2.6707387875       23.2818226002
  H        18.7440355865        1.6433606151       22.5865671193
  C        12.0419402536        7.4182779865       10.3461248306
  N        11.7972222118        8.7772097786       10.3358294103
  O        10.6038678980       10.3380246766       11.5401849291
  S        12.7541271751        6.7040871464        8.8921536541
  C        11.9085837784        9.6632806602        9.1838738301
  H        11.8951208938       10.6935676415        9.4801612311
  H        12.8288025471        9.4538795621        8.7602288756
  C        10.6803922079        9.4237913773        8.3336250811
  H         9.8299618452        9.0216620726        8.8189910129
  H        10.2743400843       10.3033613562        7.8592317094
  H        10.8179009368        8.6878800006        7.6058308994
  H         3.2660279020        3.6424650895       12.8666613697
  C         3.0098054675        2.6004418029       12.8940857183
  H         2.0731404606        2.6463652207       13.4601510417
  C         2.6927268339        2.1106328848       11.4334496068
  C         4.1214285093        1.7268910817       13.5028222354
  C         3.7572459129        2.4194966516       10.3797431906
  H         1.7583793256        2.5795326724       11.0650311432
  H         2.5751472982        1.0122034329       11.4975835125
  H         4.4104002427        0.8659852569       12.8967613357
  H         3.8573296664        1.3246910871       14.5422738923
  H         5.0344908510        2.3705621346       13.5646033440
  C         4.3234058689        1.2218557296        9.5427193181
  H         3.2965249103        3.1614006688        9.7117364644
  H         4.4747907634        2.9922566808       11.0066860545
  C         5.0864225098        1.5140628722        8.2443899280
  H         3.4215893742        0.8462131964        9.0998180348
  H         4.6200627289        0.4581221299       10.1936496149
  C         6.2604441211        2.4576331425        8.3664172636
  H         4.3655686806        1.9970582959        7.5790375428
  H         5.2975305653        0.6038403025        7.7209093542
  C         7.5913887949        1.8108540546        8.8934017914
  H         6.4279067295        2.7288821861        7.3322209257
  H         5.9925012246        3.3992097517        8.8944581195
  C         8.7272117197        2.7930467417        9.2253626426
  H         7.9216132001        0.9673330586        8.2565114849
  H         7.2948337617        1.4740015770        9.9342132862
  C         8.3589491246        4.1388352953        9.9074853674
  C         9.1386035430        3.4457145734        7.9263892632
  C         9.9756962282        2.1099028397        9.9564490474
  C         8.7696398072        5.2212824490        9.1265609230
  C         7.8737193551        4.5851310886       11.1793376435
  C         9.2471526499        4.7955657180        7.8987683404
  C         9.7052313055        2.7901917652        6.8412294886
  H         9.5120832085        1.7427167357       10.9516425234
  H        10.2837816427        1.1528075859        9.4595244802
  C        11.1989387899        3.0647937082       10.1568533877
  S         8.5373204935        6.7585021891        9.9143200030
  C         7.8414733306        5.9483888805       11.2444131185
  H         7.5893122377        3.8721756561       11.9977753357
  C         9.8273360561        5.3747329835        6.8360115205
  H         9.5629414473        1.7441975171        6.8052879691
  C        10.1498313310        3.4077401551        5.7489181696
  H        10.9694101487        4.1059478939       10.3676855739
  H        11.7728058681        3.1461735152        9.2024967911
  C        12.1251318459        2.4027441484       11.1275241934
  C         7.5618905480        6.6616012465       12.4921136625
  C        10.2268250988        4.7669697612        5.6833953301
  H         9.8980094274        6.4561813115        6.7908608143
  C        10.5750054887        2.9685697252        4.5480784476
  H        13.0571346901        2.8833925252       11.1073985201
  H        12.2183049512        1.3085234419       10.9259533361
  C        11.6407369730        2.5904181008       12.5514957004
  C         7.5631933132        8.0925520798       12.6716153911
  C         7.3632552127        5.9179534296       13.7945689295
  C        10.6898901261        5.4000589874        4.4133582839
  C        10.8919680422        4.0621413710        3.7431618461
  S        10.7483855612        1.4217320523        3.7589336926
  H        11.6373381236        3.6668380746       12.7957689129
  H        10.5959564556        2.4800901731       12.5643116871
  C        12.3114298302        1.7266549732       13.6116362212
  N         7.8717160936        9.0948578920       11.6592787921
  C         7.3309664946        8.6651670028       13.9101846812
  C         7.0785977340        6.4850441059       15.0125737047
  H         7.2551348137        4.8288911838       13.7592956070
  C        12.0300633019        6.1660727219        4.3421763632
  C         9.5163583755        6.0979340572        3.6954045897
  C        11.3834531890        3.6049619561        2.4592905264
  C        11.3148241772        2.2544383061        2.3616546117
  H        13.3799728969        1.5950649247       13.4696843726
  H        11.8199189679        0.7772936761       13.6372150846
  C        11.9489192909        2.4171052002       14.9796657083
  S         7.8549825153       10.5708359049       12.3772734116
  N         7.4976842316       10.0697283161       13.8896004471
  C         6.9780119015        7.9706321096       15.1297056044
  H         6.8820622240        5.8061830285       15.7854150498
  H        11.8641857458        7.1402966181        4.7636755085
  H        12.3356983739        6.3485325321        3.2792552802
  C        13.1691597826        5.6062181651        5.1416546058
  H         9.3197209518        7.0605049925        4.1234076699
  H         9.8459885671        6.3541627741        2.7179239372
  C         8.2236047396        5.3128649084        3.6914061858
  H        11.5034906022        4.2820453496        1.5801069351
  C        11.7342939297        1.4806348935        1.0880160431
  H        12.0782732632        3.5211223446       14.8629462844
  H        10.9419529548        2.3313337545       15.3389755067
  C        13.0490161093        2.1412147489       15.9753325277
  C         6.7061592552        8.6798301009       16.3394303109
  H        12.9257228874        5.5212409084        6.1803430812
  H        13.3395792669        4.5662673329        4.8271836902
  C        14.4295804814        6.5283957795        4.8970195724
  H         7.9493345025        4.7796398418        4.6220710004
  H         8.4144251013        4.5312881536        2.9985814821
  C         7.0051233737        6.1321991566        3.1727336270
  C        11.8313532135        0.0738609097        0.9527426585
  C        12.0967397906        2.1735001679       -0.1477321373
  H        13.9904518740        2.5683048238       15.6367378103
  H        13.2015682369        1.0873147709       16.0954997509
  C        12.5210447071        2.5223227124       17.3719735499
  H         6.8856207072        9.7690719573       16.1614905606
  C         6.4137718796        8.3757790754       17.6106924530
  H        14.1184561202        7.5656401144        5.0300360657
  H        14.7679003649        6.3980407512        3.8381587551
  C        15.7322664144        6.3737141844        5.7298913773
  H         6.1943117565        5.4750411019        2.9700041744
  H         6.5942075733        6.7934702550        3.9419252392
  C         7.3035919357        6.9704656959        1.9722318153
  N        11.4609695489       -0.7659570492        1.9659207274
  C        12.1884744810       -0.5836481583       -0.1864124049
  C        12.4316526033        1.5249436736       -1.3203578825
  H        12.1900334577        3.2081303789       -0.0616085046
  H        13.2725252768        2.3830378731       18.1426573294
  H        11.7175546769        1.8202244013       17.6430742240
  H        12.1315815601        3.5653421216       17.4753073971
  S         6.1846550882        6.8058841439       18.1249104575
  C         6.1650036304        9.4393029571       18.5448507977
  H        16.4146297148        7.1424217503        5.4122727305
  H        15.5604924859        6.6018507709        6.7172864777
  C        16.4494589280        5.0216378391        5.4004019136
  H         8.1404519140        6.4523435699        1.4577976637
  H         7.6852179715        7.8905338759        2.4895925020
  C         6.0901108067        7.2772231812        1.0709149299
  S        11.8993910272       -2.2615426960        1.5260529651
  N        12.3929105291       -1.9544958209        0.0296566176
  C        12.4985647771        0.0349539698       -1.3817439025
  H        12.7667155294        2.1538463558       -2.1551353107
  C         5.9347361625        7.5049539270       19.7293770760
  N         5.8487608799        8.9114480584       19.7628984152
  O         6.3039899720       10.6296050166       18.2217393753
  H        15.7963824318        4.2229817630        4.9408335010
  H        17.1286061950        5.2966526331        4.5941030634
  C        17.1277529025        4.5473103964        6.6321635007
  H         6.3781715781        8.0112380527        0.2882300034
  H         5.7375201033        6.3934069856        0.4959673915
  C         4.9744819041        7.9257791988        1.8903618112
  C        12.9068846599       -0.7203700419       -2.5274374181
  S         5.5523987409        6.6645270536       21.2306139590
  C         5.7738155997        9.6769164771       21.0147140067
  H        16.4191348169        4.2612007818        7.4090293677
  H        17.5036045652        3.6188659862        6.3361006599
  C        18.2607541953        5.3619162302        7.1516359698
  H         5.4661641294        8.3765691759        2.6812298971
  H         4.2764703962        7.2561605503        2.4549532414
  C         4.2347991706        9.0439229949        1.0862191773
  H        12.8279072513       -1.7155559093       -2.4101761656
  C        13.2156907196       -0.3385956126       -3.8173544364
  H         5.2117210991        9.1515285486       21.8223247690
  H         5.0870306977       10.5597319774       20.8701096336
  C         7.2090068606        9.9747329176       21.5483565612
  H        18.7857122007        4.8566763156        8.0111907144
  H        17.8794657522        6.3615125064        7.4748056833
  C        19.3332784151        5.7794933035        6.1933919353
  H         4.8663371788        9.7288543959        0.5600307218
  H         3.6757744323        8.5662315548        0.2515985430
  C         3.1944190373        9.8064194697        1.9309169936
  S        13.6151946440        1.2554910784       -4.4019538294
  C        13.3055440584       -1.4280277433       -4.7992904785
  H         7.7657130109       10.6984916948       20.8791698099
  H         7.7175534042        9.0267065937       21.6269072932
  H         7.2009897277       10.3975178988       22.5900052734
  H        19.0880414092        6.6944499898        5.5390353844
  H        20.2374838754        6.0742291198        6.7858647741
  H        19.5345419969        4.9361120339        5.5526562190
  H         2.2488069378        9.3406861041        1.8473979238
  H         3.4589171113        9.8832233394        2.9673364230
  H         3.1307430299       10.8611750337        1.5737217498
  C        13.8749639512        0.4637064484       -6.0144789301
  N        13.7684454079       -0.9090027778       -6.0023782432
  O        13.2322733702       -2.6636374239       -4.5961931892
  S        14.8616575220        1.1150109928       -7.2924572405
  C        14.0017709771       -1.8071749795       -7.1572956317
  H        14.1804841452       -2.8108818182       -6.7495821083
  H        14.7895805913       -1.6082328064       -7.8439960841
  C        12.7468242054       -1.9977032507       -7.8956167376
  H        12.7506929167       -1.4179580884       -8.8655789955
  H        11.9326141563       -1.7769065000       -7.3183492176
  H        12.6784776524       -3.0219314649       -8.0273628156
