352
 i =    72600, time =    36300.000, E =        98.8603045311
  H        11.5359636117        7.6969398699       32.4255794267
  C        11.7259616503        6.6584785423       32.3287347748
  H        12.7430921148        6.5383064535       32.0661364327
  C        11.0708639073        6.0428139260       31.1311132596
  C        11.4414449940        6.0296409244       33.6557108114
  C        11.1375018926        6.9058989533       29.8654843449
  H        11.6111167653        5.1115976478       30.8354451709
  H        10.0445540652        5.8698766660       31.2185637357
  H        11.4670234357        4.9678841980       33.5028409941
  H        12.0736542023        6.3676923439       34.4518718092
  H        10.3962140578        6.1222748848       33.9062862517
  C        10.1174466877        6.4274534209       28.8309226086
  H        12.1669025849        7.0842692712       29.4469768226
  H        10.9275028845        7.9551862987       30.1708205256
  C        10.6165700564        6.2778524353       27.3320969314
  H         9.7162587841        5.4245780610       29.1243243465
  H         9.2547205277        7.1629330764       28.8904798114
  C         9.5881062740        5.5400066435       26.4635430571
  H        11.5341552984        5.7273384069       27.2438549316
  H        10.9496356032        7.1516563134       26.8949728341
  C         8.3131896773        6.3804502288       26.0078951041
  H        10.0032119158        5.2039843211       25.5639456296
  H         9.4257061663        4.5905636972       26.9641373793
  C         7.3609624342        5.5234482643       25.1445790335
  H         7.9221506485        6.8064417942       26.9145834525
  H         8.5747938587        7.2261896647       25.3645606178
  C         6.9747480709        4.1766612267       25.8455583104
  C         7.8969063372        4.7035238644       23.9286543435
  C         6.1130447798        6.3221842350       24.7727442145
  C         7.3887846792        3.0481255049       25.1659566204
  C         6.4781882189        3.8621061075       27.1284616500
  C         7.9302010046        3.3435210004       23.8872837472
  C         8.2915451919        5.2672395167       22.7151566046
  H         6.3027996305        6.8676700335       23.8435583398
  H         6.0049783767        6.9932034583       25.6266159507
  C         4.8324821340        5.6170360868       24.7694158377
  S         7.1986918934        1.5873648833       26.0127133022
  C         6.5242547953        2.5209571654       27.3484258720
  H         6.1562010947        4.6068729848       27.8114818303
  C         8.4057972290        2.7085180933       22.8288318106
  H         8.2413960223        6.3457847500       22.5915107463
  C         8.6749861515        4.6047043555       21.6061118660
  H         4.7348489460        4.8499116677       24.0478169440
  H         4.7006888861        5.1579907606       25.7887753107
  C         3.7062073024        6.5883107776       24.6297219513
  C         6.1391181245        1.8789694391       28.6471175572
  C         8.7608718617        3.2363811584       21.6010266737
  H         8.4461299876        1.6288144110       22.9081434579
  C         9.1427371406        4.9190198869       20.3509344379
  H         2.9711192305        6.3422841663       23.8686751336
  H         4.0353136725        7.6303320644       24.5322024427
  C         2.9855118923        6.6935977214       25.9986071396
  C         6.0349057567        0.4510729290       28.8887774736
  C         5.6950133262        2.6766343934       29.8043098523
  C         9.1848488343        2.4368403110       20.4125537405
  C         9.3925073684        3.7833949487       19.6624110336
  S         9.3844871642        6.3774607894       19.5881204769
  H         2.1907727913        7.4847426988       25.8441035719
  H         3.5972033329        7.1321740005       26.8365883729
  C         2.2248872352        5.3590953688       26.3407970545
  N         6.2521659466       -0.4464455948       27.9569989333
  C         5.7939410544       -0.1366919151       30.0560845419
  C         5.3765866521        2.0616822233       30.9818215814
  H         5.5065918595        3.7611365878       29.7049474168
  C         7.9840037424        1.6030281802       19.8362097721
  C        10.4351119514        1.6168491088       20.6423688309
  C         9.6064005535        4.1523691123       18.2912189943
  C         9.7261967839        5.5341148202       18.1553650757
  H         1.6785706413        4.8765067394       25.5665246699
  H         2.9965928252        4.7236569478       26.6643140435
  C         1.4019332244        5.5391121628       27.5725214833
  S         6.3585393625       -1.9759645101       28.6297152246
  N         5.8694645053       -1.5792330179       30.0934959360
  C         5.4979760062        0.5920371821       31.1754019474
  H         4.9753580613        2.6917626737       31.7359598800
  H         7.8552695193        0.7518052720       20.3923008849
  H         8.1261672828        1.2618980886       18.8355729459
  C         6.6657164450        2.4583816338       19.6118979939
  H        10.5284491561        1.1493680018       19.6182873985
  H        10.0822091637        0.7983172064       21.2671396109
  C        11.6955471732        2.3610733571       21.0654513857
  H         9.7986038533        3.4279634269       17.4662403058
  C         9.9875142550        6.2714065680       16.8653049950
  H         0.7218184669        4.6850304213       27.6636800117
  H         0.7861401885        6.4475677672       27.5139651473
  C         2.2754349708        5.5626134288       28.7853062026
  C         5.2184490639       -0.0243580857       32.3904695246
  H         6.8051279714        3.1749696998       18.8519701102
  H         6.4647622686        2.9820018666       20.5526124561
  C         5.5087615322        1.6215106545       19.0952445970
  H        11.6233195352        2.6269963844       22.1017446401
  H        11.8206706920        3.2075309684       20.4333614446
  C        13.0233636478        1.5700924016       21.0278530194
  C        10.0234997026        7.6703453896       16.6976180026
  C        10.2830118201        5.4936646769       15.6246966185
  H         2.7547216720        4.5858777138       28.8309954843
  H         3.0225008485        6.3420964242       28.7936060283
  C         1.4702767224        5.6757393188       30.0848935621
  H         5.2846838416       -1.0815384922       32.3774707621
  C         4.9048929772        0.4261480055       33.6694468736
  H         5.0978039555        1.2696962704       20.0616172779
  H         5.9121272721        0.7957483320       18.5540060679
  C         4.5319259367        2.4877553479       18.3058963455
  H        13.0231959274        0.8032761457       21.7716791082
  H        12.9973607898        1.0737911983       20.0156366369
  C        14.3829206549        2.2380139661       21.1269916629
  N         9.9235289428        8.6118329042       17.7429463194
  C        10.3730893756        8.2765076499       15.5168919909
  C        10.5935855320        6.1584092228       14.4024286233
  H        10.1770220157        4.4037139872       15.6172990591
  H         1.2380785574        6.7658288134       30.2880602071
  H         0.5869637060        4.9459443958       30.0349490091
  H         2.0991211902        5.3672029043       30.8726162768
  S         4.5024400446        2.0071383059       34.1994411192
  C         4.9124003593       -0.6720702087       34.7148895286
  H         4.2775617403        3.4468176637       18.8383663357
  H         4.9217096621        2.8285012920       17.3607497403
  C         3.2392160839        1.7432591352       18.1686754607
  H        14.4248672644        3.1680064329       20.5396227450
  H        15.1307740651        1.5028131673       20.8381185045
  C        14.6463805525        2.6378651772       22.6211778001
  S        10.1430968927       10.1333357256       17.1784317311
  N        10.3879062163        9.6600225643       15.6400520296
  C        10.5996557104        7.6530556005       14.2619923839
  H        10.5861226138        5.5313760182       13.5380616846
  C         4.3380517375        1.2745404074       35.8143579047
  N         4.4724019564       -0.0583106504       35.8693976838
  O         5.2285831561       -1.8319708832       34.5123966579
  H         2.5247172296        2.4131888217       17.6542116226
  H         2.7776595311        1.7821839896       19.1691199309
  C         3.2469092750        0.3345486053       17.5486744686
  H        13.7527592795        3.0594611930       22.9852069661
  H        14.9184161740        1.9011276628       23.3772499896
  C        15.8661159526        3.5803266713       22.7434670315
  C        10.9455331411        8.4666161725       13.1317262290
  S         3.7729577332        2.2036224917       37.2213499926
  C         4.4356395293       -0.8962057913       37.0878888460
  H         3.1202205625        0.6280288550       16.5042367335
  H         4.1794900749       -0.2573939829       17.6167734691
  C         2.0901113534       -0.6441030881       17.8945784284
  H        16.1440583381        3.5581526446       23.8104477362
  H        15.6115541747        4.6340793006       22.4899877932
  C        17.1172192008        3.1893347515       21.8602533979
  H        10.7975891435        9.5163896532       13.3290186070
  C        11.5273066118        8.2295799652       11.8933701983
  H         3.6377825778       -0.5532992679       37.6470204085
  H         4.1621991669       -1.9170651502       36.8065627553
  C         5.7408029035       -0.7529177644       37.9291973076
  H         1.1135528952       -0.4787217040       17.3691851460
  H         1.9462300348       -0.6281518563       19.0457399832
  C         2.4324635132       -2.1146774161       17.6544515336
  H        16.7798262258        2.6478169532       20.9160277332
  H        17.7529397761        4.0796425885       21.4982386719
  C        18.1606411857        2.2376759510       22.5868489473
  S        12.1029170459        6.7051776975       11.4625540404
  C        11.6204379020        9.3770171081       10.9401192724
  H         6.5021173383       -0.3363320530       37.2558632385
  H         5.5416385538       -0.1837561365       38.8162221036
  H         6.1051245194       -1.6924767533       38.2370515193
  H         2.6292440842       -2.3595789463       16.6514926111
  H         1.7079134249       -2.7913712053       17.9965621194
  H         3.3873239282       -2.3360571474       18.1164112540
  H        18.9612806814        2.0108792902       21.8617218197
  H        17.7156212259        1.3014543192       22.8853330206
  H        18.6525071183        2.6745512131       23.4894356125
  C        12.6833629955        7.5675820409       10.0011918441
  N        12.3440447477        8.9010973660        9.9147387584
  O        11.1492682831       10.4833038519       11.0591616829
  S        13.3994594266        6.8375116354        8.5354490914
  C        12.6502732424        9.7519776011        8.7209751737
  H        12.9148264011       10.7246598514        9.1404107962
  H        13.5211036827        9.4456465062        8.2087830674
  C        11.4298476078        9.8288212972        7.7583453107
  H        11.6690029545        9.4574354964        6.7435680131
  H        10.5386028731        9.4827413696        8.2634323214
  H        11.2712343743       10.8712518312        7.5989325136
  H         2.5534910311        1.7030865007       12.5671123328
  C         3.3112424558        2.4255516729       12.8181573458
  H         4.1094925278        1.7801910261       12.7221419909
  C         3.1675333822        3.4543139805       11.7382776164
  C         3.1347125185        3.0354071982       14.1558004031
  C         4.3806349533        3.5375141540       10.8353192333
  H         2.7970363727        4.4939928730       12.0775828167
  H         2.3501377354        2.9691919757       11.1990771904
  H         3.3942280102        2.2786914123       14.9051547207
  H         2.1821719251        3.5450211442       14.3690670733
  H         3.8645933120        3.7745585042       14.3586952333
  C         4.7464974329        2.1639534405       10.1730577471
  H         4.1837436121        4.3403971744       10.1371425931
  H         5.2668893190        3.7635750872       11.4055989564
  C         5.2166716986        2.2088946596        8.6911695486
  H         3.9778205026        1.4122699633       10.3060589694
  H         5.5616783371        1.7229081594       10.7546593509
  C         6.5002839137        3.0172691439        8.4720118140
  H         4.4071931890        2.6545498398        8.0222112808
  H         5.3928801489        1.1366943949        8.4940300571
  C         7.7854258592        2.2351800180        8.8600694770
  H         6.5040340904        3.2255747748        7.3589013297
  H         6.4341784277        4.0062145505        8.9525586644
  C         9.1588467730        3.0410076501        9.0620271987
  H         7.9186285335        1.5831305653        7.9713188831
  H         7.5416683267        1.4477955146        9.5607158098
  C         8.9091310035        4.3682242841        9.8097064375
  C         9.6981234170        3.7455075152        7.8754567645
  C        10.2740705623        2.1901068027        9.6552916609
  C         9.2603447923        5.4632272193        9.0894883829
  C         8.2639913830        4.7431089666       11.0061731201
  C         9.8065652944        5.0784031791        7.9114695728
  C        10.1909168904        3.1801235163        6.7397834458
  H         9.9770637200        1.8462019432       10.6433059191
  H        10.4633281393        1.2810136860        9.0710330800
  C        11.5942735829        2.9392836755        9.9320810689
  S         8.9308225161        6.9951727498        9.8449051425
  C         8.1392292725        6.0897180227       11.1094057994
  H         7.8336091184        3.9976365620       11.6274191851
  C        10.1378982368        5.7362186850        6.7752431751
  H        10.0535698576        2.1070740436        6.6770045172
  C        10.6059687054        3.8203922393        5.6292833271
  H        11.3322260560        3.9231409640       10.2693779278
  H        12.1572097146        3.2133833605        9.0163397564
  C        12.5568782352        2.2570450284       10.8906457351
  C         7.6317620663        6.7428782434       12.3643677577
  C        10.4981655546        5.1325385172        5.5710491271
  H        10.1061043609        6.8267390379        6.7868153945
  C        10.9577820265        3.4344582716        4.3468012084
  H        13.5578905259        2.7678173864       10.8865621836
  H        12.7486367493        1.2388684012       10.5598272776
  C        12.0098705890        2.1892036352       12.3179279587
  C         7.6578487608        8.1368141442       12.5889097378
  C         7.1496219610        5.9607618498       13.5402885002
  C        10.9199230338        5.8467498861        4.3496683038
  C        11.1785625542        4.5383699411        3.5544730261
  S        11.2875990793        2.0060956278        3.4793938066
  H        11.6926681349        3.1961250539       12.5270262637
  H        11.1361478673        1.6386372098       12.3533933533
  C        13.1069553962        1.7398409301       13.2390921396
  N         7.9997129111        9.1628516150       11.7076084831
  C         7.3897690730        8.6895309480       13.8568582681
  C         6.8881747144        6.4981461255       14.7994228553
  H         7.1095659764        4.9190860366       13.4082005137
  C        12.2797462628        6.5829326983        4.5620830843
  C         9.8489987801        6.7659199913        3.7511372199
  C        11.6612596672        4.2570769678        2.2911756423
  C        11.7240531615        2.8890381968        2.0687899899
  H        13.7091689695        2.6304772924       13.4972421944
  H        13.8734017437        1.1694845033       12.7810380350
  C        12.4754736590        0.9303938143       14.2732996847
  S         7.8952729754       10.6132678433       12.4212690892
  N         7.4563858136       10.0857747786       13.9086747809
  C         7.0001257310        7.9714389051       15.0077017256
  H         6.6645711431        5.8125462006       15.5778376139
  H        12.2701174109        7.2056373400        5.4302136476
  H        12.4207824043        7.1881355351        3.6446839560
  C        13.4765211598        5.6040957676        4.8468425262
  H         9.5243736171        7.4931175737        4.4706528260
  H        10.3795517860        7.2444652459        2.9231386123
  C         8.4573083261        6.1605040371        3.4298995815
  H        11.8534483902        5.0363123332        1.5338593590
  C        12.0523471003        2.1767264812        0.7721724037
  H        11.5758355856        0.4569749478       13.9076189561
  H        13.1256236509        0.0686405056       14.4730021040
  C        11.8863181939        1.6944599252       15.3917395110
  C         6.8955548666        8.6064858920       16.3168137578
  H        13.1732097217        5.0325021665        5.6916562195
  H        13.6937681345        4.9137304673        3.9925460769
  C        14.7951608594        6.3934641509        5.2582017083
  H         7.8959861530        6.0249997339        4.3528102467
  H         8.5126379534        5.1046022194        3.0797802275
  C         7.4828455011        6.8979804741        2.4139322186
  C        12.1821593990        0.7657538910        0.6084902374
  C        12.1699037608        2.9687850664       -0.5026233764
  H        11.1098811995        1.0331192058       15.8447451338
  H        11.2890318442        2.4361147930       14.8404761380
  C        12.7931798504        2.4062316174       16.4557677090
  H         7.2005756517        9.6516118691       16.3270206359
  C         6.4160003251        8.1507849614       17.5215359940
  H        14.4989133668        7.0287729350        6.1342097142
  H        15.0628167027        7.0081034254        4.4662520750
  C        15.9035057917        5.5753834240        5.7466985488
  H         7.1934023167        7.8098971701        3.0177480560
  H         8.0223825455        7.2211292895        1.5053015023
  C         6.2277151044        6.1078054497        2.1006492192
  N        11.9247811678       -0.1753354096        1.5675443218
  C        12.5067226556        0.1876674645       -0.6069014296
  C        12.2912266610        2.2860301032       -1.6958194561
  H        11.9062082429        3.9765551895       -0.4781173708
  H        13.7701289344        2.8379654379       15.9820586750
  H        13.0665905210        1.6581181763       17.1761887232
  H        12.2384165035        3.1582135498       16.9733569506
  S         5.8850310496        6.4921928238       17.9643667317
  C         6.4090423158        9.1345171898       18.6838690908
  H        15.5080576093        4.7989243545        6.3521246960
  H        16.4250210426        5.0304054698        4.9240545453
  C        16.8685224367        6.3999847284        6.5586106739
  H         5.8362000073        5.7190739789        3.0403620293
  H         6.5173623483        5.2208060309        1.5662632536
  C         5.1986436446        6.8569285813        1.2743346445
  S        12.2868636986       -1.6822269684        1.0280603572
  N        12.6098062071       -1.1986075746       -0.4773659311
  C        12.6688510786        0.8701467951       -1.7932867139
  H        12.2566731446        2.8136361096       -2.5791892356
  C         5.9513124495        7.1695752571       19.6388954586
  N         5.9005597913        8.4982447736       19.7988248707
  O         6.6410941197       10.3662722580       18.5364223919
  H        17.3011539219        6.9916848990        5.7767233408
  H        16.4044384723        6.9511335082        7.3576535649
  C        17.8224812106        5.3981870279        7.1641229269
  H         5.7102412551        7.4237569423        0.5223766147
  H         4.5694330946        6.1263329015        0.8234297076
  C         4.4339480693        7.8679071593        2.0876205784
  C        13.0525030702        0.2362920619       -2.9954166171
  S         5.5386968116        6.2019939806       21.0443177892
  C         5.8757240780        9.1906837059       21.1212836057
  H        17.2333388852        4.9714899912        7.9662624837
  H        18.0227611351        4.5261281941        6.5509563861
  C        19.0642721970        6.0423247721        7.6637951094
  H         5.1163329735        8.1573247847        2.9391124491
  H         3.6203571626        7.3198399061        2.6270319188
  C         3.9965089374        9.1166632431        1.3011860939
  H        12.9707905576       -0.8420127572       -2.9235350721
  C        13.5836436364        0.6768103414       -4.1579785681
  H         5.3785072432        8.7595792661       21.9222806364
  H         5.3821999132       10.1882364450       20.9571367578
  C         7.3710624684        9.4161141363       21.5772295382
  H        19.4893092902        5.4129655276        8.3906846836
  H        18.7279393668        6.9801506650        8.1123109922
  C        20.0241523839        6.1891085338        6.5493719995
  H         3.5216154308        8.7778441957        0.4074667590
  H         3.1045933170        9.6208393001        1.7740060376
  C         5.1290968525       10.0554338792        1.0797267356
  S        14.0960248183        2.2544194905       -4.4978188506
  C        13.7966838344       -0.3454416120       -5.2371765722
  H         7.4750686498        9.2900838771       22.6899246610
  H         7.6210398478       10.4619670245       21.3162036177
  H         8.0745030849        8.7180435779       21.0743333816
  H        20.4464357719        5.2514930196        6.2036981360
  H        19.4871069421        6.7374232054        5.7484266857
  H        20.8927333808        6.7586960310        6.8869131977
  H         5.5870628426       10.3409561714        2.0284795565
  H         5.8978092166        9.5966917382        0.5133253480
  H         4.8521753123       10.9666901941        0.5359779333
  C        14.6050566363        1.5049764075       -6.0386217002
  N        14.3543073013        0.2358522835       -6.2375027682
  O        13.5071084352       -1.5121959788       -5.2197376407
  S        15.3914191608        2.5211993385       -7.3121416944
  C        14.4983654661       -0.4175924836       -7.5205523203
  H        14.7087200813       -1.4676003242       -7.4823905933
  H        15.3296482017        0.0612925036       -8.0723092904
  C        13.1376966288       -0.3634015261       -8.2585040433
  H        12.6265951654        0.6135493938       -8.2320689106
  H        12.4586029202       -0.9580580504       -7.8724222439
  H        13.2841092772       -0.5907360949       -9.3597873849
