352
 i =    97500, time =    48750.000, E =        98.7585205197
  H        12.3159646434        5.6138274272       32.0399896647
  C        11.2509568521        5.4464279397       32.1117768252
  H        11.1155149404        4.3514024226       31.8883693647
  C        10.4853202839        6.4867076087       31.2100715707
  C        10.8767661669        5.7023268883       33.5585828119
  C        10.9537065088        6.6646117464       29.7448342552
  H         9.4031041564        6.2945106871       31.1945884247
  H        10.4996848258        7.3904913573       31.7911971435
  H        11.2112884979        4.8408554270       34.2167774581
  H        11.4028332557        6.5706733818       33.9554503498
  H         9.8374480220        5.9153930839       33.6880562110
  C        10.5811507846        5.5296945942       28.8050535798
  H        12.0430425631        6.6483663954       29.8686280864
  H        10.5333398618        7.5630164602       29.4438667101
  C        10.7637048535        5.9493275540       27.3789887039
  H        10.9795559789        4.5168859484       28.9562736097
  H         9.5623694609        5.2701337432       29.0334122650
  C         9.6097788533        5.4172863596       26.4971487527
  H        11.7169141382        5.6183895980       27.0001937460
  H        10.7668616775        7.0193868547       27.4570640717
  C         8.4852419366        6.3340308332       26.2061444046
  H        10.1175831501        5.2441921725       25.4588970489
  H         9.1723824293        4.4605448003       26.8528654616
  C         7.2636554417        5.6465891478       25.5110483862
  H         8.2185457856        6.8789847736       27.0950792149
  H         8.9542930828        7.0199769598       25.5360942604
  C         6.8890438078        4.3245588560       26.2220983981
  C         7.6540800559        4.9095044168       24.2712024635
  C         5.9957292357        6.4690831123       25.3146876510
  C         7.1344410621        3.2437136500       25.4295975133
  C         6.4487471248        3.8494930978       27.4576417095
  C         7.6278410024        3.5391107934       24.2148576290
  C         8.1412570269        5.4841224132       23.0754306490
  H         6.1888045323        7.3930083674       24.8618331357
  H         5.5699601290        6.8678713924       26.2402915516
  C         4.7667876299        5.8324290724       24.7381422782
  S         6.6798343082        1.6825744913       26.0477412618
  C         6.2036784111        2.5009261247       27.5315835217
  H         6.2512164053        4.5606054904       28.2678548607
  C         8.0699781998        2.8554047640       23.1280188893
  H         7.9968353411        6.5347867184       23.0743883752
  C         8.4948927236        4.7822985541       21.9426688618
  H         4.8917092331        5.6530904851       23.7155956904
  H         4.5353284307        4.8100284393       25.1378805737
  C         3.4886220691        6.7201434559       24.7868448796
  C         5.8018614933        1.7093893626       28.8088498777
  C         8.4432405414        3.4647973794       21.9516828958
  H         8.0780695780        1.7629732740       23.2318307489
  C         8.9197789164        5.1290474059       20.6747567689
  H         2.7332148398        6.2632427449       24.1964861826
  H         3.6265241232        7.6989410401       24.3186094397
  C         2.8138938349        6.9179512126       26.1373910244
  C         5.9126613688        0.3168042443       28.9742907526
  C         5.3940379458        2.4791564782       30.0454101718
  C         8.8924632979        2.6864727755       20.7533749110
  C         9.1772190362        3.9900545357       19.9451376864
  S         9.2694365365        6.5610101380       19.7887713020
  H         1.9934831364        7.6137498444       26.1174246094
  H         3.5536917355        7.3063692554       26.8021293850
  C         2.2861554041        5.5685477789       26.7337770639
  N         6.1549605083       -0.5441409042       27.9383014650
  C         5.6086561211       -0.3353610216       30.1670696518
  C         5.2694882864        1.8957350920       31.2771088433
  H         5.1500400218        3.5421968007       30.0774286523
  C         7.7569032097        1.8191325704       20.1974742244
  C        10.1781830578        1.8712445550       21.0246599194
  C         9.6035461811        4.3207649205       18.6854027388
  C         9.6806444533        5.6596888135       18.4146942059
  H         1.8731476917        4.9280014983       26.0245539456
  H         3.1570962113        4.9757023622       26.9040733846
  C         1.3334317989        5.7443101820       27.9252999942
  S         6.0861972188       -2.0336291665       28.5650794096
  N         5.6998089120       -1.7263956298       30.0751503603
  C         5.3506319164        0.4325298940       31.3717941867
  H         4.9827031205        2.5344177558       32.0615982611
  H         7.5787499967        0.9057069253       20.7871612879
  H         8.1528171624        1.4581965511       19.2293128213
  C         6.4247099800        2.5381158955       20.0937256133
  H        10.3717282864        1.3932748557       20.0903066009
  H         9.9921134393        1.0560865606       21.6713253936
  C        11.3095239939        2.7849433163       21.5266309287
  H         9.7090072601        3.4768456094       18.0118769410
  C        10.1524940479        6.3373835775       17.1410271628
  H         0.8060970624        4.7716921542       27.9610293007
  H         0.6588419317        6.5981714952       27.7027720805
  C         2.0972710745        5.7449207299       29.2952491376
  C         5.2641988392       -0.3257264839       32.5851981484
  H         6.5783925043        3.5006685550       19.5741036822
  H         5.9955023259        2.6844350334       21.0721557509
  C         5.3747472141        1.7467400916       19.2962722788
  H        11.0127102903        3.3698258134       22.4480970989
  H        11.7149827013        3.4019129214       20.7489707581
  C        12.5172969259        1.8729562874       21.8472762378
  C        10.2765224442        7.7483197566       17.0059027059
  C        10.4271150348        5.4946335103       15.9079477362
  H         2.5641141995        4.7329128677       29.4205925073
  H         2.8718890732        6.5251239153       29.1198365017
  C         1.1107175876        6.1425730399       30.4187762631
  H         5.1185681698       -1.4289081451       32.4721814117
  C         4.8843723012        0.1100583645       33.8515362798
  H         4.9017300506        1.0667934313       19.9885294525
  H         5.6704708017        1.1989575396       18.4294872631
  C         4.1950212509        2.6064056627       18.7339092679
  H        12.3420720695        1.3676910552       22.8052846625
  H        12.6938744414        1.1614512822       21.0596109443
  C        13.7126906417        2.8459933139       22.0588248269
  N        10.0867203492        8.7593327111       17.9329099490
  C        10.4414754910        8.3171671181       15.7446739697
  C        10.8072767282        6.1129360321       14.7185173934
  H        10.4921920166        4.4185647608       16.0340182400
  H         0.3505947410        6.7062482591       29.9113958745
  H         0.7159763419        5.2218145184       30.9754900397
  H         1.5159449573        6.7949123610       31.2124798665
  S         4.6111468800        1.6698457960       34.4627984809
  C         4.8207060232       -0.9372402014       34.8957530505
  H         3.5946508588        3.0031292267       19.5650112669
  H         4.5182905597        3.4133144022       18.1179669384
  C         3.2219659837        1.7033765547       17.9461914891
  H        13.4186821523        3.4067524180       22.9293485780
  H        13.8396965677        3.6078629063       21.2762641586
  C        15.0174252312        2.0769500868       22.2563735241
  S        10.0634505773       10.2343704465       17.2160298452
  N        10.3857387863        9.7141828819       15.6935560981
  C        10.7132803266        7.5948378726       14.5608036676
  H        10.9525446882        5.4148498474       13.8123513983
  C         4.1934661792        0.8844854870       36.0145084612
  N         4.3300013107       -0.4312867400       36.0257649419
  O         5.0917540900       -2.1409116724       34.7295804241
  H         3.7199819503        0.8456636300       17.6026908930
  H         2.8975606066        2.2576009040       17.0091862000
  C         1.9462003002        1.4534636341       18.7748477981
  H        14.9897300187        1.6017706949       23.2419769135
  H        14.9937717442        1.3179458171       21.4676076672
  C        16.1427262506        3.0314235739       22.1904869485
  C        10.8754664698        8.3048554520       13.3533430004
  S         3.6290734088        1.6629378173       37.4938459004
  C         4.1400893367       -1.2835529786       37.1844206741
  H         1.9954813840        0.8680355884       19.6636069856
  H         1.2850583908        2.2289364876       18.9615067572
  C         1.1439369599        0.4801720783       17.9631155945
  H        15.8733819710        3.9289983233       22.7585109721
  H        16.3425535800        3.3144853256       21.1574264408
  C        17.4442404974        2.4355318121       22.6398131414
  H        10.7137298248        9.3607853834       13.4227106563
  C        11.3030476924        7.9924967761       12.1262944803
  H         3.4778429481       -0.7695438637       37.8731765324
  H         3.4551779339       -2.1362993641       36.9909596213
  C         5.4100178080       -1.6574555516       37.8872683854
  H         0.8924321795        0.7839718217       16.9925363642
  H         0.2052952088        0.4012174532       18.5310296249
  C         1.7709722038       -0.9013806638       17.6973134379
  H        17.5509443839        1.5036011976       22.0680989119
  H        18.2261421492        3.0505007899       22.2666303558
  C        17.5361014185        2.1026251995       24.1656286698
  S        11.9082203515        6.4876419075       11.5927149640
  C        11.2570788265        9.1392156070       11.1777688412
  H         6.3139916085       -1.4994424717       37.3065035361
  H         5.6282312054       -1.1313052689       38.8188964607
  H         5.4747350754       -2.7430417974       38.0838169398
  H         2.3859950637       -1.0149846379       16.7712670482
  H         0.9537476547       -1.6634101401       17.5669414622
  H         2.3644400877       -1.3997137879       18.4840935095
  H        18.5955608376        2.2493378121       24.4748214589
  H        17.2133842150        1.0672243458       24.3955500424
  H        16.8944843184        2.7214530059       24.7472263224
  C        12.2015348927        7.4169731532       10.0771672778
  N        11.9418433868        8.7362802515       10.1016100319
  O        10.7899161992       10.2759271338       11.3674684624
  S        13.0690572467        6.7352197739        8.7003509245
  C        12.0847949586        9.7729475304        9.0650498046
  H        12.2186259458       10.8199682244        9.3393541052
  H        13.0069449704        9.5022351060        8.4967841014
  C        10.8991695997        9.6933542782        8.1199878154
  H        10.0548269025       10.2383357257        8.5440362614
  H        10.8920996160       10.1103023243        7.1114624776
  H        10.4965436992        8.7210160129        8.0869158919
  H         2.4186741828        3.9642008528       12.1997805794
  C         3.0156121151        3.0714766154       12.6191334709
  H         2.4737278337        2.1113909297       12.4108903278
  C         4.4545134007        2.9091627724       12.1472824255
  C         2.9982258618        3.1111650813       14.1103773459
  C         4.4230694148        2.9015047105       10.5866452315
  H         4.9831130141        2.0548042000       12.5309390751
  H         5.0447303977        3.7472948564       12.4931105941
  H         3.9717217549        3.5121563534       14.3864915266
  H         2.7816806196        2.1137790878       14.5765487641
  H         2.1343767758        3.7228403679       14.3934445811
  C         5.0274395060        1.6712035702        9.9242502074
  H         3.4476340679        3.1510299865       10.1744486256
  H         5.0785248518        3.6921614199       10.2817138662
  C         5.5773420703        1.8752727177        8.4927775471
  H         4.3159376815        0.9169506213        9.8863802333
  H         5.6991739413        1.1716448856       10.5467906567
  C         6.9271244851        2.5911543834        8.4387514434
  H         4.8884803684        2.4441884792        7.8566810028
  H         5.6289004783        0.8964363371        7.9593667966
  C         8.0376017753        1.9551527978        9.3699135206
  H         7.2690645510        2.6300024573        7.4053183679
  H         6.5819904159        3.6151539124        8.5819606503
  C         9.3866553772        2.7645378747        9.3026894559
  H         8.2057958999        1.0116804926        8.8440067925
  H         7.8489021503        1.7503410325       10.4037853608
  C         8.9585634387        4.0828845104        9.9065940804
  C         9.7014047848        3.4400756136        8.0101866667
  C        10.5630509354        2.1168346590       10.0483956118
  C         9.0215415126        5.1651847625        9.0548806693
  C         8.3272473561        4.4754006722       11.1354476604
  C         9.5685472526        4.7609765010        7.8853467950
  C        10.1102492910        2.7471328922        6.8550653917
  H        10.1543458069        1.6351507421       10.9414460314
  H        10.9238743193        1.3142182396        9.4672778516
  C        11.6342293867        3.0616400566       10.5681668131
  S         8.6105601132        6.6611610932        9.6842517109
  C         8.1059608172        5.8372279041       11.1935891078
  H         8.1568912156        3.7375141649       11.8860630633
  C         9.9428222793        5.3616199595        6.7068374275
  H         9.8756345068        1.7568552806        6.8100006406
  C        10.5742066142        3.3381304986        5.7356996424
  H        11.1662383721        3.8693008566       11.0437899793
  H        12.0959752854        3.3863916363        9.7287596460
  C        12.6307474709        2.4726540102       11.5653847188
  C         7.6013260074        6.6591954813       12.3989436355
  C        10.4509756452        4.6835984668        5.5694987839
  H         9.9345883754        6.4291961442        6.6340612052
  C        10.9242299702        2.9414984175        4.4836510211
  H        13.3447324646        3.4024654552       11.6559095763
  H        13.3219157529        1.7278690695       11.1412982570
  C        11.9482121834        2.0419483464       12.9346678766
  C         7.5885733125        8.0247187604       12.6478490343
  C         7.2802349834        5.8170951523       13.6397398729
  C        10.8468041236        5.3179809698        4.2805068207
  C        11.1571067407        4.0090868295        3.6276352620
  S        11.2150965822        1.4402833180        3.7473775098
  H        11.0176817715        2.6248513765       13.1836283072
  H        11.5663218412        1.0040974039       12.7480270498
  C        12.9006627554        1.7831128805       14.1550443318
  N         7.9243514794        8.9579702111       11.7037909034
  C         7.2321470097        8.6384144582       13.8410160206
  C         6.9763670256        6.4533671245       14.7822490833
  H         7.1777068444        4.7306153761       13.6448049437
  C        12.2007545760        6.1005428984        4.3162698018
  C         9.6671250575        6.0256967247        3.5792728309
  C        11.5597377492        3.5296798367        2.3978455710
  C        11.6251833162        2.2040623202        2.2675972319
  H        13.9911176172        1.9562241979       13.8692760721
  H        12.8785240562        0.6931789359       14.2071506266
  C        12.4031715181        2.4298071204       15.4626768507
  S         7.9241758753       10.3747554700       12.4096130412
  N         7.3453617169        9.9926931871       13.8678878060
  C         6.9519234373        7.8942835581       15.0029992353
  H         6.7733936689        5.8090544452       15.6187559907
  H        11.9570855906        6.8878796953        5.0505240780
  H        12.4017237306        6.3864236207        3.3014784174
  C        13.4817659862        5.2146203291        4.6807106672
  H         9.2014326719        6.7028899012        4.2787800791
  H        10.0171230791        6.7847728104        2.8555566168
  C         8.5704541933        5.2267100989        2.8358892345
  H        11.7587308671        4.2597619158        1.6158400944
  C        11.9779492415        1.4200096338        1.0179573181
  H        12.3366021012        3.4975417238       15.2732326603
  H        11.3642737176        2.1867970283       15.6450298397
  C        13.1971562251        2.1356758538       16.7949049812
  C         6.6951189479        8.5579831511       16.1869316772
  H        13.2650468941        4.5473636400        5.5238491869
  H        13.7605873680        4.5661931702        3.8221807030
  C        14.6565843503        6.1293811769        4.9344415548
  H         8.0725528199        4.6204766438        3.5984563719
  H         8.9067697795        4.6961208518        1.9651761748
  C         7.4536150262        6.2021505476        2.4025205797
  C        12.0560763062       -0.0157909825        0.9081328876
  C        12.2087172650        2.1016153387       -0.2593674731
  H        14.2674998174        2.0574231383       16.7462731494
  H        12.8184915373        1.1384221260       17.1455526316
  C        12.8347017054        3.1617450393       17.8509562377
  H         6.7492198869        9.6369521506       16.0911236633
  C         6.5042464643        8.2163029695       17.5090064187
  H        14.3589026841        6.9116259528        5.6715092334
  H        14.9725364837        6.6182145095        4.0343414958
  C        15.8890165293        5.3221163307        5.4438249874
  H         6.9737788948        6.6052009217        3.2800065210
  H         8.0265102351        7.0217910727        1.8208848746
  C         6.5641555159        5.4773487625        1.4430284768
  N        11.6967080733       -0.9033212399        1.8841089645
  C        12.2347582432       -0.6388630642       -0.3033550058
  C        12.5636448583        1.4869440258       -1.4039898158
  H        12.0557147276        3.1835078781       -0.2529381082
  H        12.6679387129        4.1991098098       17.4579470693
  H        13.5992694168        3.3039133326       18.5734660355
  H        11.8405401614        2.8819954572       18.2786150825
  S         6.2648211297        6.5953342306       18.1209475834
  C         6.4157285070        9.2759330837       18.5387231819
  H        15.6100000553        4.4569475994        6.0057315871
  H        16.3609324278        4.9526590574        4.4958929838
  C        16.8516540411        6.1398503404        6.3181992327
  H         6.4889375704        4.3921401990        1.7038382003
  H         6.8972908357        5.5229727210        0.4089222710
  C         5.1884446362        6.1850843110        1.4862222459
  S        11.8835259385       -2.4315920124        1.2498759177
  N        12.1992182762       -2.0231526005       -0.2852287628
  C        12.5367167456        0.0313581803       -1.5036873710
  H        12.7497371980        2.0893188211       -2.2938707434
  C         5.9062893384        7.3886725598       19.6310520809
  N         6.1482683388        8.7309200444       19.7054643448
  O         6.5972562602       10.5026032191       18.3799916572
  H        17.4749799962        6.7221984592        5.6102503766
  H        16.3086769250        6.8508526525        6.8597415464
  C        17.7428384857        5.2669550051        7.1791331772
  H         4.5619390125        5.5410755969        0.9723488966
  H         4.9007647518        6.1999043349        2.5642739502
  C         5.2624326589        7.5621665321        0.6507291096
  C        12.8714318226       -0.7485367614       -2.6034258720
  S         5.6552873644        6.5051481091       21.1255144162
  C         6.2327754965        9.5566348510       20.8783152899
  H        17.1603735277        4.8803644070        7.9970136474
  H        18.0278466435        4.2989546498        6.7466925377
  C        18.9711117278        6.0041157538        7.7008128162
  H         5.2118208635        7.3660655136       -0.4384145299
  H         6.1293094644        8.1146641789        0.8654309433
  C         4.0751741327        8.3739470560        1.0682106618
  H        12.7175664149       -1.7921470784       -2.4979033370
  C        13.3458763952       -0.3732033339       -3.8964104730
  H         5.6693328419        8.9804058807       21.5935411342
  H         5.6301466449       10.4789064692       20.7213290003
  C         7.6986946239        9.6925506154       21.4172795413
  H        19.3952436359        5.5517434178        8.5932882827
  H        18.6928128208        7.0555094303        7.9351642597
  C        20.0827013198        6.0472336778        6.7042761426
  H         3.6001644770        8.9468769354        0.2796023132
  H         3.3072054333        7.6776356226        1.3915578358
  C         4.4076891984        9.1930325978        2.2539754523
  S        13.9350111264        1.1207066570       -4.4289222108
  C        13.4471306320       -1.4504658506       -4.8860244163
  H         7.8375435833       10.4555774221       22.1734176860
  H         8.4208559297       10.0311834299       20.6653084631
  H         8.0497584414        8.7507679706       21.8100565580
  H        19.6464591758        6.5718960473        5.8121373415
  H        20.9004761976        6.6832241926        6.9048429952
  H        20.4688126587        5.0805115898        6.3849582700
  H         3.4524151694        9.8111288074        2.4119990462
  H         4.6833009664        8.5874389576        3.1072537694
  H         5.1393174213        9.9492744748        2.0389951783
  C        14.4599686764        0.2920866291       -5.9184282396
  N        14.0457145130       -0.9606633847       -5.9857731062
  O        12.9964020420       -2.5605408445       -4.7306102904
  S        15.0844199033        1.0733960946       -7.3778274379
  C        14.1245480852       -1.7134260725       -7.2438831094
  H        14.3714705083       -2.7288202774       -6.9236431471
  H        14.9112970813       -1.4512511368       -7.9670264801
  C        12.7916013273       -1.8131677270       -7.9440155933
  H        11.9666029986       -1.4223613086       -7.3769377633
  H        12.6737466835       -2.8226288949       -8.3323812349
  H        12.8985797095       -1.2280548953       -8.8237639368
