352
 i =    47500, time =    23750.000, E =        97.5594466657
  H        10.2655352163        4.9040821874       32.5926158934
  C        10.2244858714        6.0127675865       32.7982548625
  H         9.3492680675        6.2470480049       33.3971475981
  C        10.0887871064        6.7750178286       31.4869050930
  C        11.4416161946        6.4542802604       33.6751859016
  C        10.9416051204        6.1743123446       30.3850882139
  H         9.0734511643        6.7046818273       31.1631223040
  H        10.3473845854        7.8359095448       31.5522701058
  H        12.0138854593        5.6302491015       34.1133855465
  H        12.1567805367        7.1499219793       33.2647861691
  H        10.9609837250        6.8999702029       34.5516516045
  C        10.0863135745        5.4739226438       29.2532597174
  H        11.6677748602        5.4221139026       30.8273210351
  H        11.4498759790        6.9927020769       29.8947214218
  C        10.6794055204        5.7689188280       27.8918496531
  H        10.0663421297        4.4001692391       29.4749301280
  H         9.0767899611        5.8152276808       29.3318558051
  C         9.7580296299        5.1681810051       26.7574456833
  H        11.7449785122        5.5111205537       27.8132171441
  H        10.7100044782        6.8299865066       27.8225385731
  C         8.6219950546        6.1177795736       26.3435234263
  H        10.2677403892        4.8120071611       25.9120209515
  H         9.3893430782        4.2915519611       27.1979407845
  C         7.5141967630        5.4626083120       25.4497456669
  H         8.1051948913        6.3004904532       27.2486793163
  H         8.9783112265        7.1118594817       26.0348372283
  C         7.1045090069        4.1597436569       26.1308144435
  C         7.9484263806        4.6604571274       24.2048761450
  C         6.3494550532        6.4291629103       25.2009741107
  C         7.4755644043        3.0283177566       25.4187949371
  C         6.5495958275        3.7967099670       27.3384607965
  C         8.0193104778        3.3605869260       24.2258172837
  C         8.3332949916        5.1809354164       23.0706096287
  H         6.6655049491        7.2380736174       24.5179379214
  H         6.1482142288        6.9088081821       26.1502184840
  C         5.0418842570        5.6948432531       24.7423963770
  S         7.1259828241        1.4956114816       26.2342300125
  C         6.4914260436        2.4476696949       27.5999873716
  H         6.4201677854        4.4913704742       28.1609515709
  C         8.3547585762        2.6699303289       23.0770195979
  H         8.3358160248        6.2594047204       22.9250405552
  C         8.8032484495        4.6236546877       21.9207965122
  H         5.1440351464        5.4713198003       23.6822390897
  H         4.8887085549        4.7390825700       25.2665881904
  C         3.8175039179        6.5724688720       24.7168754739
  C         6.0548417956        1.8176741548       28.9059477252
  C         8.7837434599        3.2314937206       21.8866598689
  H         8.3267837417        1.5690897934       23.0917064226
  C         9.1718490686        4.9930854378       20.6696752831
  H         3.2313436019        6.2121362130       23.8942696523
  H         4.0607892162        7.5664765481       24.3932785050
  C         3.0222875858        6.6356552361       26.0241211674
  C         5.8609026948        0.4113055270       29.1119784226
  C         5.6865095299        2.7232088776       30.0755626343
  C         9.2805074148        2.5461423050       20.6126512306
  C         9.4766008232        3.9107597338       19.8450904247
  S         9.3433863898        6.5231797170       19.8258464614
  H         2.2728700257        7.4471536105       25.8287550606
  H         3.7116390071        6.8079177499       26.8705529379
  C         2.1093027526        5.4459007423       26.3784517557
  N         6.2268827618       -0.6080524481       28.2016960074
  C         5.4802380239       -0.1258207821       30.3116180680
  C         5.1659328810        2.1565594744       31.2069435540
  H         5.9932365804        3.7791033664       30.1197891723
  C         8.2433986629        1.6112651977       20.0952872434
  C        10.6328298518        1.8836865923       20.9063213579
  C         9.9071760089        4.2749402962       18.5286685974
  C         9.6959147450        5.6557630336       18.4036138937
  H         1.3566774928        5.5514635081       25.6948047797
  H         2.5050939702        4.5264803921       26.0405720565
  C         1.5997071573        5.3755443023       27.8278251811
  S         6.1709852370       -2.0626770416       28.9137555346
  N         5.6648035136       -1.4880031010       30.3558087603
  C         5.0840728141        0.6224834193       31.3494437328
  H         5.0803479975        2.7307883531       32.1465804756
  H         7.9020518342        0.9330541282       20.8504229663
  H         8.5912721013        0.8742825218       19.3221567081
  C         6.9629952845        2.3282074735       19.7010253634
  H        10.9060259801        1.4127373511       19.9759662414
  H        10.4965586764        1.0086965517       21.5369393961
  C        11.7973640332        2.7402104892       21.3035604393
  H        10.1089189704        3.5087324803       17.8053728544
  C         9.8039051775        6.3738248953       17.1556131550
  H         0.9422888622        4.5187199816       27.9034920467
  H         0.9888233715        6.2873791213       28.0227194030
  C         2.7013114282        5.2658488132       28.8414622243
  C         4.8117785819        0.0224541146       32.5524447501
  H         6.9213385312        3.4199777964       19.8800403968
  H         6.4347583132        1.8324355654       20.4499788156
  C         6.3688016313        2.0547519909       18.3687469656
  H        11.4742580757        3.3346723941       22.0772036598
  H        12.0254722520        3.3833122813       20.4734005321
  C        12.9761247314        1.9132267640       21.6164003180
  C         9.7688982725        7.7516031893       16.9538407684
  C        10.2159539972        5.5804952235       16.0029110702
  H         3.1785396334        4.2066825728       28.8152198559
  H         3.5573464325        5.8965109316       28.6252952224
  C         2.0850257026        5.5470382908       30.3363525147
  H         4.7699174915       -1.0693257484       32.5374335081
  C         4.6633153043        0.3985818247       33.8550794722
  H         6.1850014541        0.9680520905       18.1493835740
  H         6.9936861788        2.4262358337       17.5968966757
  C         5.0483466584        2.7236100730       18.2503607824
  H        12.7500892628        1.1551870262       22.3345157224
  H        13.2837700131        1.4985311322       20.6875362534
  C        14.1452184019        2.7836926159       22.1005346044
  N         9.4589393543        8.7506043823       17.9265720506
  C        10.2090689867        8.4078296731       15.8063129162
  C        10.3634678677        6.2210823306       14.7528717040
  H        10.3748412814        4.5270620707       15.9289151400
  H         2.7320059948        6.0054763678       31.0953673610
  H         1.1910289400        6.0752382782       30.2094508925
  H         1.7004455334        4.5816888474       30.6784006012
  S         4.3761191188        1.9282177827       34.5199350392
  C         4.5748871761       -0.7107841758       34.8468833663
  H         5.0574678864        3.7504673108       18.7132315106
  H         4.7769226962        2.9011293130       17.2194928330
  C         3.9656651686        1.6920717075       18.7973508620
  H        13.8297268330        3.2392813309       23.0667932093
  H        14.4175613540        3.6343371160       21.4679407416
  C        15.3894344364        1.9565902369       22.3002752258
  S         9.6052904515       10.2092199562       17.2516927613
  N        10.2562086429        9.7819258738       15.8579750467
  C        10.5622998177        7.6775857790       14.6423798587
  H        10.5611130599        5.4819197932       13.9310118856
  C         4.0818926679        1.0784880478       36.0269608143
  N         4.2149671575       -0.2143782301       36.0485310722
  O         4.6774533523       -1.9442003691       34.6200458815
  H         3.1552282338        2.2377305790       19.2323506509
  H         4.4043355029        0.9989384955       19.5726395604
  C         3.3278959516        0.7574516142       17.8113821378
  H        15.2084839144        1.3490699114       23.1572590537
  H        15.6422686003        1.2862003672       21.4670516304
  C        16.6594340345        2.8101628672       22.5334545894
  C        11.0054581889        8.4089831400       13.4713237302
  S         3.6357061445        1.9313784701       37.4371637203
  C         4.0088581170       -1.0598176089       37.2672270579
  H         2.8016096908        1.3958638364       16.9739154190
  H         4.1081062580        0.0992815872       17.2845946513
  C         2.1932921081       -0.0170914687       18.4642101683
  H        16.4499373194        3.5321220825       23.3575277683
  H        16.8650716563        3.4447604135       21.6619172240
  C        17.8616227046        1.9644486746       22.7881096415
  H        11.0012108835        9.4754750765       13.5644385905
  C        11.4903924268        7.9356914207       12.2539315258
  H         3.1659594784       -0.6666830655       37.8895871480
  H         3.7874513059       -2.0797821580       37.0334924794
  C         5.2826422098       -1.1551914168       38.1211609838
  H         1.5085104929        0.6120010507       19.0337906864
  H         2.5560092361       -0.5933300674       19.2876533981
  C         1.2783341607       -0.8092701496       17.5456754880
  H        17.9714208077        1.0610047080       22.1363279139
  H        18.6724094291        2.6198641667       22.5472857558
  C        18.0469387764        1.6538744227       24.2845643324
  S        12.0344630360        6.3099470338       11.8897317974
  C        11.6806537401        8.9093601834       11.1369474813
  H         6.1896113731       -0.9871721024       37.5146583262
  H         5.1405876680       -0.4117662963       38.9429032512
  H         5.3869222394       -2.1436265399       38.5918506550
  H         0.3253360762       -0.3859510517       17.7917895158
  H         1.2674311104       -1.8449999137       17.7404200942
  H         1.4978048999       -0.6067166212       16.5050484695
  H        18.1741567529        2.5283446616       24.7899639205
  H        18.9685612597        0.9859234695       24.4744204266
  H        17.1410000682        1.1470882449       24.6371058780
  C        12.4992445558        6.8991721040       10.2529842243
  N        12.2945162907        8.2369732772       10.1343167891
  O        11.4869128169       10.1129658182       11.2292842206
  S        13.3472263817        5.8920979651        9.0814043865
  C        12.7102356232        9.0698225505        9.0329110335
  H        13.1393015433       10.0293778102        9.4048040778
  H        13.4414432703        8.6035398580        8.3468907209
  C        11.3877493158        9.4072877440        8.2858126046
  H        10.4499066256        9.2776649619        8.8369780418
  H        11.2678847017       10.4081200086        7.8584910586
  H        11.3189648774        8.6905498166        7.4656105527
  H         4.3113043002        3.6635647828       12.5542784425
  C         3.3888743836        3.0206906457       12.5979832817
  H         2.5024684086        3.5976349325       12.2491932028
  C         3.4888727969        1.8571472079       11.6747626556
  C         3.2745244658        2.6575323859       14.0949673739
  C         4.0987539051        2.2272585665       10.3416217749
  H         2.4519395329        1.4774667937       11.5106397237
  H         4.1153195192        1.0688019061       12.1443331223
  H         2.7867858791        1.6799893636       14.2970514364
  H         2.7148355810        3.4520363614       14.6073323432
  H         4.2662240580        2.5618268904       14.5183570395
  C         4.8131030735        1.0929587284        9.5462427147
  H         3.1722034261        2.6648451068        9.7542009316
  H         4.7379301834        3.0763666639       10.5014101318
  C         5.3877989323        1.6687449182        8.2017228569
  H         4.1252267277        0.2679864060        9.3295739799
  H         5.6393511647        0.7378780341       10.2042860751
  C         6.5441179196        2.6179592064        8.2043264042
  H         4.5911975995        2.0834510013        7.6650516173
  H         5.6396227455        0.7376538817        7.7225642883
  C         7.9745936698        1.9961767245        8.5221480817
  H         6.6087441057        3.0147070946        7.2112012486
  H         6.2654745418        3.4312805734        8.8204225870
  C         9.0083165356        2.9598963605        9.0484186325
  H         8.3442449800        1.4574792241        7.7150164887
  H         7.8001818048        1.2592996493        9.2868481485
  C         8.5747124644        4.2659139056        9.6648143973
  C         9.5466687953        3.6952894931        7.8430856050
  C        10.1812085478        2.2518466825        9.8036864816
  C         8.9035126635        5.4118987376        8.9673624979
  C         8.0063424871        4.6409558507       10.8995555321
  C         9.5698466951        5.0795195059        7.7603109072
  C        10.0230896156        3.1401981538        6.6624855767
  H         9.8645446504        1.8134829338       10.7341011743
  H        10.4672079644        1.2776557008        9.2722673463
  C        11.3710529868        3.0826350278       10.1525486745
  S         8.6678901995        6.9105816544        9.7183607512
  C         8.0392133085        6.0173380779       11.0889082015
  H         7.7926516961        3.8478775159       11.5617105606
  C        10.0864694489        5.6975791104        6.6603367184
  H        10.0632943430        2.1045278970        6.7175939099
  C        10.5053653029        3.7014914954        5.5465713806
  H        11.0413070280        3.9759332964       10.7419797509
  H        11.8266102820        3.3533711785        9.2127781079
  C        12.4382016729        2.4581245609       11.0746649814
  C         7.6847086910        6.7347699984       12.3371226756
  C        10.5579164615        5.0692427245        5.4735578224
  H        10.1437265935        6.7664216468        6.8257082782
  C        10.9567546423        3.2692302286        4.3642143203
  H        13.3770975047        2.9889639895       10.9576350175
  H        12.4919442860        1.4187475131       10.8658992771
  C        12.0804751628        2.6342073950       12.5351079568
  C         7.8497436574        8.1236060257       12.6878828539
  C         7.1259601580        5.9202103668       13.4113445751
  C        10.9083037743        5.7082095633        4.2250333495
  C        11.1999242577        4.3364310194        3.5302181726
  S        11.1038653738        1.7288233891        3.6523156892
  H        11.6466518166        3.6717718372       12.7608676966
  H        11.3136075300        1.9001509180       12.8000854565
  C        13.1505129874        2.3506956392       13.5804298123
  N         8.2286766760        9.0979502654       11.7433094725
  C         7.4058828398        8.7061953970       13.8476404940
  C         6.7881315062        6.4548719608       14.6675591192
  H         6.8644198526        4.9316149759       13.2226886313
  C        12.1864191306        6.6267751669        4.5453168958
  C         9.8294681491        6.4991983529        3.4398241933
  C        11.5315656082        3.8881864250        2.2240675665
  C        11.4770764824        2.5510339547        2.1713442536
  H        13.9436345829        2.9814818225       13.2044317462
  H        13.4086630601        1.3072410068       13.5703577576
  C        12.7384096506        2.7194466887       14.9371422175
  S         8.1470953571       10.5944103906       12.4312040067
  N         7.6710573354       10.0432970301       13.8946402372
  C         6.8963414980        7.9310643363       14.9748772111
  H         6.2483005852        5.8321521094       15.3505003792
  H        12.0001348961        7.1121096585        5.4698770390
  H        12.2785465883        7.4111315071        3.7657915540
  C        13.3894306378        5.7648376722        4.6566935393
  H         9.4652721244        7.3454523259        3.9806251194
  H        10.3191274793        6.8647497125        2.4996613840
  C         8.6280352075        5.5749207802        3.0443523284
  H        11.8233740199        4.5804223884        1.4508451822
  C        11.8437869798        1.7084632444        0.9453211689
  H        12.6068697434        3.7856798661       15.0024412886
  H        11.8295360349        2.3116077713       15.2128076592
  C        13.8469653287        2.4574418499       15.9042338712
  C         6.6265970130        8.5328829948       16.2083954033
  H        13.2394221138        4.8430211629        5.1481844962
  H        13.7901681137        5.5160146196        3.6462786675
  C        14.5435457038        6.4762531913        5.3764451970
  H         8.4432353747        4.9114939109        3.9141017305
  H         8.8155569254        4.9771208908        2.1216560206
  C         7.4054553999        6.3736162907        2.6343923699
  C        11.9084658105        0.2963927874        0.7608834216
  C        11.8889314244        2.4037665451       -0.3606423138
  H        14.7355773209        3.0212850080       15.6317804379
  H        14.1495858456        1.4784578901       15.8748738379
  C        13.3912048786        2.8917542198       17.2934923971
  H         6.5714467368        9.5961913195       16.1735768478
  C         6.4639873981        8.0480059784       17.4596123797
  H        14.3094697544        6.8601340519        6.3732514143
  H        15.0250653391        7.3053946619        4.8030695467
  C        15.5813192450        5.5192089653        5.7701865939
  H         7.2386569995        6.9732367989        3.5595657859
  H         7.5084499467        7.0063796772        1.7608670870
  C         6.1016833470        5.6621948873        2.4259096176
  N        11.7251419886       -0.5390155129        1.7824934044
  C        12.2135880428       -0.2814979104       -0.4262923552
  C        12.1628214386        1.8405872392       -1.6211414804
  H        11.6370548378        3.4335027116       -0.3425889508
  H        12.3016074602        2.6633386387       17.2770010632
  H        13.6701107030        3.8665458195       17.5378770440
  H        13.9364555465        2.2384529749       18.1195346854
  S         6.3329584166        6.3752969046       17.9342313302
  C         6.3615507255        9.0313376634       18.5450044890
  H        15.2092069268        4.9623517522        6.6609426973
  H        15.8548281017        4.9852338220        4.8977198880
  C        16.9475003991        6.1437771264        6.0413114929
  H         5.5941437755        5.5191868373        3.4154513911
  H         6.2517288206        4.6337471194        2.0662436610
  C         5.2470388118        6.4177442985        1.3881791727
  S        11.7269471544       -2.0376825762        1.2031127646
  N        12.1945333086       -1.6621878188       -0.2885453315
  C        12.4615188240        0.3688071840       -1.6841817110
  H        12.1125634097        2.4545411082       -2.4984238610
  C         6.0713659556        7.0345683673       19.5951513295
  N         6.0784643008        8.4189587408       19.7030008809
  O         6.5935679789       10.2233700549       18.3884937147
  H        17.5070997689        6.3655837481        5.1165293186
  H        16.8207115875        7.0718351745        6.5308262464
  C        17.8028930688        5.3091101403        7.0127647236
  H         5.7915883790        6.7430317422        0.4499981442
  H         4.5299930577        5.6769018849        1.0907919855
  C         4.5001975970        7.5646843229        2.1429626014
  C        12.8373549394       -0.3431017989       -2.8568366232
  S         5.9316142652        5.9302740780       20.9710554483
  C         6.0778439371        9.1168541559       21.0060844432
  H        17.2342344587        4.9033967778        7.8037147233
  H        18.1723723356        4.6029723609        6.3433702012
  C        19.0810816329        5.9182569322        7.4821462556
  H         5.0409324096        7.9989423024        2.9895399058
  H         3.6314742508        7.1523759936        2.6404064776
  C         4.0252861164        8.6193696375        1.0964465484
  H        12.7057668672       -1.4108925047       -2.7725867771
  C        13.2968290629        0.0719902129       -4.1146753603
  H         5.7871741622        8.5022168976       21.9220523320
  H         5.4423111182       10.0145246763       20.8762411629
  C         7.5631885444        9.4593796890       21.4116104605
  H        19.6024088938        5.2739321545        8.2201966925
  H        18.8703576007        6.8523066112        8.0099612519
  C        20.1654674524        6.1389622911        6.3177722095
  H         4.3538268645        8.3636250241        0.0939561239
  H         2.9701523663        8.3999159661        0.9488422247
  C         4.3310098960       10.0447690646        1.6049664375
  S        13.8798878043        1.6473135753       -4.5651381242
  C        13.4616455128       -1.0278607308       -5.0934911255
  H         8.4494286430        9.0411593493       20.8994272280
  H         7.6942905485        9.1703958980       22.4567175433
  H         7.5511176391       10.5758854543       21.4550097763
  H        20.3948830268        5.1780250302        5.8203420245
  H        19.7551537691        6.8418783580        5.5296142547
  H        21.1626165845        6.6241552688        6.6670150377
  H         3.4451888929       10.6826132054        1.7615325288
  H         4.9922602204       10.0724079354        2.4455935594
  H         4.7694597738       10.7422852732        0.9127908860
  C        14.0632264420        0.9003228626       -6.1418089713
  N        14.0081309468       -0.4579751722       -6.2124647940
  O        13.1670033342       -2.2091644931       -4.9704969249
  S        14.7071514475        1.7600746584       -7.5810682884
  C        14.2922499710       -1.2171595841       -7.4436837099
  H        14.5285348336       -2.2197310853       -7.1443857985
  H        15.1934875922       -0.8940264631       -7.9187178899
  C        13.1258452622       -1.2260272141       -8.4002956554
  H        12.9259180871       -2.2490821026       -8.6467655985
  H        13.4230208650       -0.7261795543       -9.3383948519
  H        12.2552046830       -0.8274847615       -8.0334874429
