352
 i =    45900, time =    22950.000, E =        98.6403021583
  H         9.7800903100        5.7612552716       31.1077680611
  C        10.2239614651        6.5713953520       31.6785400224
  H         9.2916072111        7.0091290230       31.9803836752
  C        11.0987862494        7.3514336014       30.6539502769
  C        10.9415894423        5.9041184919       32.8833987785
  C        11.3237993148        6.4538943658       29.4162257631
  H        10.4409499490        8.1521147021       30.2795419091
  H        11.9598855490        7.8957478391       31.1317662618
  H        10.4157776791        5.0482837849       33.3001783049
  H        11.9651380293        5.6519725156       32.6003267346
  H        11.0221309236        6.5753210030       33.6954512587
  C        10.1403433848        6.0998713355       28.5716532094
  H        11.8510935400        5.5488902145       29.7627218270
  H        12.0577151974        7.0547616402       28.8537966143
  C        10.5823933690        5.9916499791       27.0292755867
  H         9.8517934402        5.0042865982       28.8796729999
  H         9.2674528696        6.7322725010       28.5947972420
  C         9.5372812367        5.2071479939       26.2730416307
  H        11.5057166430        5.3759589356       26.9552038424
  H        10.7867649485        6.9141168144       26.5045280541
  C         8.2584984984        6.0224821164       25.9951084044
  H         9.9010158629        4.8082421169       25.3311131847
  H         9.2985179132        4.3093093725       26.7922498165
  C         7.2090564821        5.3278475562       25.0794545337
  H         7.8784975629        6.4334357722       26.9446245025
  H         8.5674045812        6.8600508225       25.3338368610
  C         6.9298694377        4.0096774873       25.7187948445
  C         7.6528539066        4.6772305316       23.8055676899
  C         5.8965081733        6.2400967991       24.9928189672
  C         7.2348596181        2.8897188487       24.9171223749
  C         6.4171341938        3.5370034652       26.9629223503
  C         7.7261520885        3.2933773655       23.7600943134
  C         8.1498933334        5.2986115332       22.7060521366
  H         6.1136627648        7.0500427541       24.2209562917
  H         5.8811898250        6.7099939232       26.0344917925
  C         4.6903049507        5.4140009649       24.6390104838
  S         6.8330020959        1.4001274731       25.6336955907
  C         6.2585750230        2.1507439190       27.0629825595
  H         6.1079612937        4.2246609031       27.7159591146
  C         8.2027203954        2.6606040478       22.6729241088
  H         8.0558938872        6.3603368090       22.6428365126
  C         8.6371187960        4.5994241871       21.5648318710
  H         4.8210969398        5.0384246410       23.6751823989
  H         4.5059609886        4.6520499574       25.4235281092
  C         3.3428442938        6.1512610620       24.5808371595
  C         5.9149859262        1.4304464330       28.3461514414
  C         8.6757388765        3.2364622125       21.4709205108
  H         8.1653240607        1.5519798872       22.7639457800
  C         9.0820463923        4.9548400667       20.3479375069
  H         2.5630852764        5.6676611779       23.9564654989
  H         3.5479591751        7.1073700939       24.0723612702
  C         2.8740194007        6.5363870700       25.9597443915
  C         5.9670355786        0.0278164521       28.6038352225
  C         5.4005950779        2.1671640488       29.4649438174
  C         9.0406174561        2.4982678962       20.2332458692
  C         9.3804040713        3.8898077804       19.5716632976
  S         9.3960975924        6.5087537107       19.6282318997
  H         2.1239622457        7.3056420318       25.7274845489
  H         3.7178013137        6.9498261733       26.5929598154
  C         2.1646974630        5.3108014446       26.5707398667
  N         6.3905254229       -0.8635589419       27.6387695613
  C         5.6057488438       -0.6254049394       29.7759649658
  C         5.0236130007        1.5870481103       30.6882158535
  H         5.2153059999        3.2565347402       29.3441844117
  C         7.7839917655        1.7819684242       19.5451079561
  C        10.1970903207        1.5458428124       20.6414369851
  C         9.8064642511        4.2789900055       18.3164041943
  C         9.8575012502        5.6597870471       18.2077334529
  H         1.5042418715        4.8336021265       25.8736999854
  H         2.8884556195        4.5040578878       26.7539047080
  C         1.3714877168        5.5648138122       27.8630025886
  S         6.2915880357       -2.4096080202       28.2516600643
  N         5.8223349544       -2.0179749603       29.7382336406
  C         5.2363097022        0.1326792600       30.8680277477
  H         4.7124641285        2.1701673051       31.5294664913
  H         7.6249125654        0.8509351258       20.0472747123
  H         8.1696934151        1.5292828624       18.5130796931
  C         6.4752085348        2.5871349231       19.3738024297
  H        10.3971664629        0.8145102681       19.8804578723
  H         9.8363338660        1.0502156474       21.5626563743
  C        11.4848004218        2.3057788487       20.9434810454
  H         9.9586039228        3.5809083065       17.5161601820
  C        10.3313163300        6.4796779082       16.9880729818
  H         0.3421324349        5.2012702875       27.7574240089
  H         1.3291183785        6.6459693165       27.9122928252
  C         2.0562713046        5.1521439820       29.1541118322
  C         4.9895045939       -0.5514802793       32.1366564001
  H         6.6187473339        3.3229769518       18.6334593880
  H         6.2185093670        3.0709967747       20.2716318369
  C         5.3345528550        1.6042215161       19.0115070960
  H        11.2539543651        2.9309210691       21.8529343229
  H        11.7629106376        3.0590326995       20.1570932974
  C        12.6731927805        1.4880187419       21.3696828118
  C        10.5565010723        7.8788339745       16.8531222832
  C        10.4477800017        5.8406096704       15.6950662433
  H         2.3016630196        4.0698412685       29.0973654435
  H         2.9981733870        5.5778975078       29.2519486408
  C         1.0889122961        5.4638167739       30.3204944944
  H         5.0929726069       -1.6341654735       31.9697659185
  C         4.5735766738       -0.1051795852       33.4308148486
  H         4.9616516437        0.9799862185       19.8193691435
  H         5.5952074805        0.9699892430       18.1972637790
  C         4.2205882400        2.3787809999       18.4265897737
  H        12.3308804783        0.9122706909       22.2438657100
  H        13.2042567688        0.8399339889       20.6112578323
  C        13.6737408525        2.4953329362       21.8375852387
  N        10.4028103459        8.7323727800       17.9230841315
  C        10.8660700503        8.5920111545       15.6802062019
  C        10.8413948080        6.4848315049       14.5178427557
  H        10.3248282196        4.7924545148       15.7305752439
  H         1.4585909901        5.0394246303       31.2620256217
  H         1.0428181482        6.4936361938       30.6358770238
  H         0.0236017026        5.2813917330       30.2196036246
  S         4.1097761421        1.4524343150       33.8985384508
  C         4.4180472704       -1.1933408910       34.4773025134
  H         4.1057258897        3.3149615632       18.9810683173
  H         4.6633403261        2.6195181423       17.4956231406
  C         2.8847993902        1.6999800998       18.2908187484
  H        13.2006347903        3.1211868304       22.5999238038
  H        13.9461624095        3.0674119158       20.9478819701
  C        15.0134512988        1.9514281817       22.3884150236
  S        10.6807232055       10.2539684118       17.4201921865
  N        11.0573337293        9.9829780430       15.9075429492
  C        10.9560175805        8.0041920265       14.3883903104
  H        10.9628419078        5.9351919158       13.6180528637
  C         3.9064197332        0.8259345356       35.4763852852
  N         4.0764312325       -0.5521399291       35.6218712181
  O         4.5143307026       -2.3935796646       34.2447368758
  H         2.3577697735        2.2562507390       17.5951554401
  H         2.2867942774        1.8952438375       19.1913946375
  C         2.9049276248        0.2168532357       17.8294714540
  H        14.7665617699        1.4275133601       23.3186846410
  H        15.4317689922        1.1682134937       21.7441690729
  C        15.9427142862        3.1039594144       22.7321369559
  C        11.1933728922        8.7874116100       13.2076063537
  S         3.7118035192        1.6921188835       36.8731757531
  C         4.1649119477       -1.2218886257       36.9301356291
  H         2.8415921622        0.3598736111       16.7721312962
  H         3.7537150786       -0.3458873609       17.9182171530
  C         1.6983610964       -0.5342715235       18.3430361617
  H        15.8296277180        3.3627836574       23.8015867809
  H        15.7420383588        4.0164301328       22.2509799170
  C        17.4116372877        2.6317861809       22.5712673752
  H        10.8264747514        9.7760169544       13.2977852216
  C        11.8124984404        8.5139396146       12.0505818634
  H         3.3610568899       -0.8877830543       37.6272835634
  H         3.9451731290       -2.2410925197       36.7580541965
  C         5.5198068056       -1.0175186426       37.6782338320
  H         0.8862826004        0.1444916549       18.0706020589
  H         1.5792254484       -0.7181128489       19.4305515994
  C         1.5689663939       -1.8463766201       17.6766646619
  H        17.6010394826        2.3157648421       21.4597558467
  H        18.1426523864        3.4121360912       22.6946794498
  C        17.8293119919        1.5555731507       23.6576597584
  S        12.2370826818        6.9895374731       11.4470033803
  C        11.9672883755        9.6250516619       11.1094985063
  H         6.2937725530       -0.8571246379       36.9514533302
  H         5.4252089913       -0.3397817648       38.5544494851
  H         5.8715900798       -1.9833619202       37.9744811422
  H         2.5498178294       -2.2449053838       17.5098570456
  H         1.0821803938       -1.7600723867       16.7438459427
  H         1.0530357990       -2.6173109798       18.3103371236
  H        17.2748190377        1.7647943895       24.5836382627
  H        18.9068024421        1.5313945108       23.8169289450
  H        17.5132395614        0.5823650158       23.3729965220
  C        12.5455057267        7.7718101309        9.9057567278
  N        12.4452885524        9.1576557650        9.9423895025
  O        11.5502895640       10.7776019416       11.4102843165
  S        12.8768371994        6.9746043353        8.3019293492
  C        12.4577615376        9.8680393963        8.6806201297
  H        12.6363133978       10.8909139863        8.8261544816
  H        13.3561784122        9.5422897213        8.1243594269
  C        11.0859812614        9.5933494201        7.9866574633
  H        10.6182678441       10.5647781647        7.7932728400
  H        11.2477584652        9.1201134676        7.0142990212
  H        10.4728461905        8.9960675098        8.6267544972
  H         5.1458237599        1.3480394938       12.7740552933
  C         4.7080259360        2.3903654392       12.9252121827
  H         5.5331661030        3.0434918662       13.1333404229
  C         3.8237663235        2.6434743037       11.6800438255
  C         3.8698079537        2.2479821438       14.1924854625
  C         4.7022752257        2.8351531935       10.4265626028
  H         3.0506858238        3.3728444728       11.7834674126
  H         3.3161183991        1.7671039711       11.5087366804
  H         2.8318630721        2.0350006786       14.0290007127
  H         3.8855968266        3.1522637708       14.8759879172
  H         4.1823025961        1.3403210426       14.7771833550
  C         4.9597822953        1.5236087471        9.7111837696
  H         4.1572195928        3.5384650192        9.7115387589
  H         5.5580139018        3.3873994561       10.6466435416
  C         5.9240915435        1.5452301313        8.5184389611
  H         3.9850467587        1.1906718532        9.3721647124
  H         5.2798236674        0.7477577129       10.3590195403
  C         7.0858310233        2.5593297592        8.4750229726
  H         5.2269549046        1.7140592733        7.7052668327
  H         6.1452749691        0.5129081689        8.1627650116
  C         8.3190603710        1.9899539779        9.0801196196
  H         7.3931453652        2.8184237472        7.4597989414
  H         6.8077392283        3.5676227369        8.9175576354
  C         9.5086548239        3.0059268245        9.2373664722
  H         8.7459606964        1.3731150981        8.3417306411
  H         8.2851204853        1.3643005188        9.9928323517
  C         9.1774375373        4.3327222632        9.9498828520
  C         9.9093947123        3.6007528181        8.0130403173
  C        10.7575115076        2.3667674663        9.8145169083
  C         9.4136043407        5.4067456901        9.1248670169
  C         8.6244512338        4.7745623070       11.1779027504
  C         9.8903577631        4.9690139256        7.9115414259
  C        10.3312289165        2.9498817322        6.8588176242
  H        10.5010646702        2.0604429784       10.8128543186
  H        11.1453227096        1.4741426382        9.2806138053
  C        12.0068321077        3.2860690891        9.9727559874
  S         9.1661937030        6.9032062943        9.8349956114
  C         8.6087172544        6.0756432436       11.2971672699
  H         8.4020497127        3.9797307478       11.8763911365
  C        10.3505585440        5.5709188831        6.7399603815
  H        10.2592309417        1.9101113328        6.8091550374
  C        10.5722059833        3.4912646194        5.6866703086
  H        11.6493000805        4.2810525539       10.2393009736
  H        12.5667536813        3.3871419433        9.0542953751
  C        12.9632541695        2.8366139074       11.1347746558
  C         8.0105840156        6.8105734231       12.4540784590
  C        10.6083269766        4.8582377526        5.5620536282
  H        10.3361311876        6.6432765158        6.6360161835
  C        10.8529922512        3.1425184884        4.3689682739
  H        13.9387039779        3.3712947115       10.9839482760
  H        13.1847846149        1.7771621710       10.9899618467
  C        12.5265795950        2.9987299024       12.5213590013
  C         8.0545925836        8.1426463289       12.7418848742
  C         7.4409991846        6.0148961221       13.5776858328
  C        10.9982425820        5.4869516976        4.2763753976
  C        11.1472105405        4.2049157429        3.5780480955
  S        11.1082736445        1.6505959682        3.5147283175
  H        12.5005816504        4.0657825386       12.8031790883
  H        11.5674512495        2.5590538192       12.6901224153
  C        13.4920937609        2.4403990443       13.6044555834
  N         8.4128742741        9.0963899992       11.8408353184
  C         7.6829067078        8.6879016986       13.9304261939
  C         6.9142933271        6.5461737553       14.7900851562
  H         7.3964539020        4.9794884794       13.4370685991
  C        12.3084675695        6.2157671801        4.3596614773
  C         9.8770108051        6.2659444970        3.6133613669
  C        11.4736388007        3.8356701703        2.2230300638
  C        11.5098036610        2.5083804576        2.1077895312
  H        14.4260922935        3.0364846007       13.5660696450
  H        13.7318736713        1.3971973295       13.5294959737
  C        12.8696773718        2.6159265428       15.0348783289
  S         8.5302736676       10.5842233705       12.5467858272
  N         8.0207667475       10.0366911265       14.0040131295
  C         7.2142558211        7.9590660702       15.0656654029
  H         6.5773369452        5.7893984853       15.4299342389
  H        12.2739338112        6.9499907380        5.1527514352
  H        12.5237034096        6.7434966818        3.4101585405
  C        13.5149638291        5.3397398131        4.6457402896
  H         9.8290397835        7.2876828666        4.0277778223
  H        10.1938428925        6.4540278033        2.5488654785
  C         8.5302034630        5.5890031719        3.7210141332
  H        11.6119097028        4.5009446948        1.4028696837
  C        11.6532896890        1.7633297464        0.8246826001
  H        12.5130729514        3.6101937262       15.2020667105
  H        11.9908063234        2.0799695649       15.0254939766
  C        13.7220165739        2.1741227792       16.1956806154
  C         7.1832113469        8.6229003570       16.3445662392
  H        13.4491824277        4.6180631188        5.4630779019
  H        13.6588699475        4.7149440031        3.7244967960
  C        14.7127128127        6.2582312103        4.9133973462
  H         8.1588633140        5.5688721242        4.7321446964
  H         8.6111011307        4.6088284340        3.3959916485
  C         7.4684156516        6.2651688111        2.8814524292
  C        11.7914757218        0.3594162575        0.7183807809
  C        11.8153969898        2.5792082617       -0.4604977367
  H        14.6792235866        2.6916152052       16.2368680509
  H        14.0451534738        1.1922819646       16.0087784613
  C        13.0277010648        2.4487996429       17.5663471608
  H         7.3006228516        9.7001505506       16.3307429323
  C         6.8196302110        8.1708085975       17.5996471379
  H        14.4477520193        7.0407568562        5.6407987831
  H        14.9570003944        6.7639818456        3.9992874979
  C        15.7783548990        5.4669744894        5.6121069270
  H         7.3884892862        7.3107003733        3.0833864907
  H         7.7837778315        6.2268508610        1.8431342435
  C         6.1112281305        5.5252561016        3.0227713458
  N        11.8084880600       -0.5104113721        1.7602488797
  C        12.0188699333       -0.2743756131       -0.4836453505
  C        12.1908038000        1.8855281472       -1.6521240013
  H        11.7043911631        3.6542724640       -0.5137478503
  H        12.1121746941        1.7948730559       17.6881688059
  H        12.6437761658        3.4001150111       17.7491860384
  H        13.7520287671        2.2702908259       18.4886161015
  S         6.3070957369        6.5489374446       18.1018590861
  C         6.8889162411        9.1584645718       18.7639598093
  H        15.3100583176        4.8087631368        6.3380573388
  H        16.1898888638        4.9472177996        4.8059995409
  C        16.8711896050        6.3628430473        6.2986382882
  H         5.6865184730        5.8794499475        3.9911228282
  H         6.2506301299        4.4351301710        3.0455230720
  C         5.0909296619        5.8795217558        1.8327831672
  S        12.0675777652       -2.0097418562        1.2329894959
  N        12.2577490536       -1.5968439975       -0.3109144102
  C        12.1170143095        0.3698569800       -1.7336260377
  H        12.4702352765        2.4700166763       -2.5006232644
  C         6.1180949386        7.2503888489       19.6793439212
  N         6.3923635100        8.5122414131       19.8771574317
  O         7.2026046754       10.3910138767       18.6641795354
  H        17.3111945708        7.1103260032        5.6109125308
  H        16.3459436540        6.9153326053        7.0885045331
  C        17.9954843467        5.5283410544        6.9438286468
  H         5.5933544395        5.6260987523        0.8918773176
  H         4.1942122716        5.2787288382        1.7547259665
  C         4.5746571038        7.3717478871        1.9470607262
  C        12.4423109041       -0.4264173573       -2.8446922502
  S         5.4510329693        6.2204511757       21.0057146051
  C         6.3559632559        9.2566681716       21.1795324357
  H        17.5837022968        4.8141899929        7.6935864944
  H        18.5197008406        4.8949328577        6.1936511134
  C        19.0456335368        6.4178150646        7.6712610567
  H         4.7468148815        7.6927936295        2.9639259924
  H         3.4803452028        7.3408459950        1.8817813652
  C         5.0176774314        8.3533133479        0.8916774652
  H        12.2016066273       -1.4558975176       -2.8439696876
  C        13.0146033956       -0.1401833571       -4.0483910657
  H         5.4924666557        8.8139164409       21.6894870034
  H         6.0246850431       10.2179643796       20.8298976478
  C         7.6158205597        9.2063340489       22.0471859616
  H        19.3202789855        5.9557633045        8.6357557285
  H        18.9589634418        7.4500677177        7.7136790180
  C        20.3427059552        6.1936515146        6.9291413622
  H         6.0831578577        8.6192444412        1.2005846854
  H         5.1008832632        8.0277000745       -0.1281283473
  C         4.1906191743        9.6651283447        0.9504496005
  S        13.6489573306        1.3865325752       -4.4948047250
  C        13.1870602441       -1.1160833820       -5.1111767958
  H         7.4016045043        9.0857343912       23.0934122289
  H         8.1219709392       10.1821417547       22.0120730036
  H         8.3801214969        8.4412816233       21.8108973562
  H        20.6095576292        5.1756605624        6.8286194820
  H        20.2763662049        6.6893561361        5.9190946048
  H        21.0899422144        6.7632351859        7.5866365390
  H         4.2348233132       10.0900536777        1.9522441287
  H         4.4077721549       10.3551182842        0.1835696902
  H         3.1605639256        9.3981469181        0.9481285292
  C        14.1632980330        0.7102618872       -6.0117349592
  N        13.8779637657       -0.6597346321       -6.1464828080
  O        12.6813432044       -2.2389617410       -5.1401664728
  S        15.0151162683        1.5049701792       -7.3136026161
  C        14.0655612111       -1.4816707111       -7.3650074461
  H        14.2236322015       -2.5163161044       -7.1234579489
  H        15.1022872943       -1.2146224104       -7.7482253162
  C        12.9401352531       -1.2876197557       -8.3939110877
  H        13.2296533211       -0.9704989290       -9.4224644818
  H        12.1922686985       -0.4901108607       -8.0366002344
  H        12.5317740909       -2.2552758759       -8.4230749580
