352
 i =    12500, time =     6250.000, E =       127.3362406239
  H        10.6211088706        4.9992975447       33.0433462091
  C        10.2056599735        5.9804941770       32.7836369082
  H         9.3611904401        6.2179152857       33.4460871622
  C         9.6405998127        6.1064072400       31.3103332936
  C        11.4178611350        6.9147784823       33.1123403371
  C        10.5836204953        6.0790402479       30.2017513493
  H         8.7790132003        5.4109858118       31.2499803960
  H         9.0834863295        7.0118060400       31.0614172173
  H        11.3206348185        6.9832820550       34.1915406329
  H        12.3406698442        6.4260934251       33.0065988665
  H        11.3381217068        7.8914825156       32.6235021007
  C         9.8495031223        5.4446272636       29.0580507582
  H        11.5003321625        5.5248855728       30.3518141258
  H        10.9026420205        7.0923654450       30.1605462889
  C        10.5653555035        5.7775549263       27.6991714180
  H         9.9892615001        4.3856556349       29.1960551894
  H         8.7684789179        5.7141165277       29.0693132667
  C         9.7355894519        5.3236404495       26.4836979083
  H        11.5124492704        5.2881764910       27.7201699368
  H        10.8222378114        6.8502079802       27.7607786697
  C         8.3635026756        6.0322484609       26.3861872907
  H        10.2237625350        5.3619927146       25.5175725508
  H         9.6096548948        4.2264007558       26.5665440595
  C         7.2816086262        5.2063122083       25.6170101204
  H         8.0038561880        6.3799157106       27.3524070407
  H         8.4416604701        6.9875250598       25.7362556095
  C         6.9603042805        3.8706688856       26.3151471983
  C         7.7931507611        4.4480130654       24.4032743319
  C         5.8558045612        5.9746929766       25.4710685582
  C         7.1621177478        2.7362669011       25.5298275887
  C         6.5983387873        3.5342053720       27.6304062439
  C         7.7767616654        3.0971223848       24.3110126524
  C         8.2334298831        5.0877039914       23.2157306632
  H         6.0508935996        6.7444862619       24.7319048601
  H         5.5706742943        6.4816542241       26.3736880075
  C         4.7049916148        5.1155595462       24.9619215914
  S         6.5782466623        1.3286835540       26.2695780727
  C         6.4075284310        2.1713504150       27.7744512717
  H         6.5359029862        4.2636772963       28.4584967896
  C         8.0936488657        2.4224781021       23.1842710760
  H         8.3161596751        6.1655824121       23.1613034026
  C         8.5861167585        4.4796668489       22.0161296138
  H         4.9659544703        4.6776982822       24.0265765081
  H         4.6296737760        4.2673075574       25.7329827646
  C         3.4555872346        6.0319616388       24.7275768836
  C         6.0085238021        1.4686076198       29.0403602245
  C         8.4925417720        3.1162047458       22.0132094179
  H         7.9448523223        1.3778259532       23.1039354268
  C         8.9446503383        4.8692838007       20.7494107903
  H         2.7533523769        5.5197518709       24.1962120253
  H         3.8392946051        6.7790832877       24.0020011483
  C         2.8726076320        6.5477520439       25.9972987958
  C         5.8073963447        0.0994010308       29.1573492192
  C         5.3985779758        2.3307798515       30.0825651084
  C         8.7945471472        2.4477205649       20.7043685798
  C         9.1215989757        3.7994199343       19.9663552189
  S         9.2069278133        6.3604542860       19.9957354140
  H         1.9015467526        7.0345584037       25.8111160249
  H         3.6208323600        7.1759378584       26.3247241884
  C         2.5858794410        5.4372509785       26.9283789023
  N         6.0787601603       -0.9178706607       28.2484343838
  C         5.2488854035       -0.4510496257       30.3178566632
  C         4.9040564313        1.7438795784       31.2208997465
  H         5.3482614927        3.4163907797       29.9378510412
  C         7.6627323194        1.5361613082       20.0587086054
  C        10.2043898322        1.6936608166       20.9253620316
  C         9.5201884539        4.2043532898       18.6038176577
  C         9.5463245936        5.6000027248       18.5492903544
  H         2.4828682017        4.4992871362       26.4219908177
  H         3.3851989839        5.2657538315       27.6021449731
  C         1.2860947420        5.8333216883       27.6986107468
  S         5.6935369086       -2.3299056700       28.8433378915
  N         5.2451789862       -1.7733778757       30.2881530700
  C         4.9728077050        0.2823689204       31.4568625684
  H         4.5517625220        2.3171465690       32.0300776814
  H         7.0890778494        1.1053131182       20.8145497956
  H         8.2781470800        0.7709569325       19.5951489179
  C         6.6624030366        2.3686100112       19.1694109421
  H        10.5725175857        1.2737550706       19.9930425324
  H        10.0338912804        0.7395252750       21.4022721796
  C        11.3741169670        2.4552982824       21.5710518923
  H         9.5973055697        3.4322119270       17.8245232402
  C         9.6952071220        6.3920032017       17.2661869822
  H         0.3814947544        5.7504266068       27.2175052086
  H         1.3844356764        6.8516812075       28.0931044064
  C         1.0340528875        4.9067041664       28.9895756811
  C         4.7104489100       -0.5354259067       32.6098466924
  H         7.0948403468        2.8791983782       18.3133185065
  H         6.2421144063        3.0031191976       20.0056995819
  C         5.4792868418        1.4547512624       18.8349953752
  H        11.1371078328        2.6765571354       22.6049345037
  H        11.4496764245        3.3730467306       20.9608147969
  C        12.6700693681        1.7177370857       21.4747381538
  C         9.7280263035        7.8286088803       17.1286236984
  C        10.0701953213        5.6745288783       16.0498934134
  H        -0.0043032137        4.6378864756       29.0753057600
  H         1.5646089991        3.9977323751       28.8496567413
  C         1.5111572470        5.4137624252       30.2580465829
  H         5.0392267443       -1.5752015717       32.6320833571
  C         4.3809647102       -0.1765887076       33.9490856217
  H         5.4243308335        0.6934010940       19.6287376388
  H         5.6828234535        1.0239823572       17.9000039011
  C         4.1455856798        2.2440677447       18.6710567569
  H        12.6102479574        0.8003410200       22.0906904207
  H        12.8333571675        1.4286556255       20.4690429549
  C        13.8686230768        2.5744142842       21.8202407914
  N         9.5388972902        8.6789008099       18.1875477884
  C        10.0234825066        8.4987754792       15.9800232969
  C        10.3703553362        6.3570240282       14.8452492275
  H        10.1631741351        4.6503611999       16.0031046970
  H         1.2327154283        4.8368340878       31.0792133381
  H         2.5803390259        5.5934015511       30.2652550920
  H         1.0138094169        6.4535999772       30.3786591683
  S         3.9616761967        1.4117724372       34.5022216901
  C         4.4739242450       -1.2546818128       34.9685982049
  H         4.0215751087        3.0366106315       19.4496290770
  H         4.2150181691        2.7760335103       17.7434468092
  C         2.8808887551        1.3584109209       18.5095140297
  H        13.7084067598        3.5104826445       21.2287438587
  H        14.6295582228        1.9717989069       21.4130387212
  C        14.1499260697        3.0559298479       23.2692013110
  S         9.4153700551       10.1836997601       17.5490450823
  N         9.9428367401        9.8359573132       16.0712879200
  C        10.5216103055        7.8577748145       14.7916891133
  H        10.5835557838        5.8215889542       13.9823352414
  C         4.0942060733        0.7000421551       36.0701060132
  N         4.1578519333       -0.6752096970       36.1459952293
  O         4.8917968806       -2.4010434182       34.7787351633
  H         2.1087618030        1.9746642938       18.1717153974
  H         2.6940712092        0.9947886486       19.5249242814
  C         2.9217918943        0.1539850126       17.5128255693
  H        13.6059312244        4.0311299525       23.4729757367
  H        13.7547618734        2.2709339138       23.8319656484
  C        15.7028652259        3.2597577839       23.3095508950
  C        10.8167795573        8.6631017063       13.6530004187
  S         3.6274069913        1.5279208390       37.5668794544
  C         4.2294645226       -1.3646802255       37.4337657468
  H         2.2427066889        0.2945258455       16.7647799863
  H         3.8356067694        0.0363347296       17.1177986145
  C         2.5897955615       -1.1308939658       18.2419864034
  H        16.0469838504        3.9124963094       24.1513466491
  H        15.8896505815        3.6824504496       22.3186036376
  C        16.4577011135        1.9572580484       23.5033803534
  H        10.2966881854        9.5661394009       13.6183727420
  C        11.3786328589        8.4460985419       12.3956282419
  H         3.6231217578       -0.9628566599       38.2446156137
  H         3.8144809526       -2.4141932489       37.2028352094
  C         5.6427418383       -1.2765670818       38.0214372760
  H         1.5727448276       -1.2015766514       18.7533664944
  H         3.3920735759       -1.2710367559       18.9619104113
  C         2.5593671837       -2.3350395491       17.2536078165
  H        16.2466107151        1.5430421369       24.5300709784
  H        16.2601653684        1.1985190450       22.7260021096
  C        17.8906717540        2.3407599799       23.5562612499
  S        11.9426762619        6.9540735560       11.9260144570
  C        11.3788387401        9.5614589924       11.3766662650
  H         5.6826462064       -2.0437419147       38.7201654741
  H         6.3892575523       -1.3741764502       37.1898121238
  H         5.8158697212       -0.3041309513       38.5281787215
  H         1.8869127144       -3.1371631549       17.4588217849
  H         3.4662900957       -2.8556552780       17.2596538854
  H         2.5469872620       -2.0355815914       16.2209413679
  H        18.3725997783        1.4612165043       23.7399461737
  H        18.1967759338        2.8743976541       24.4361583002
  H        18.2563108521        2.8688726591       22.7633090028
  C        12.3087900646        7.8163262860       10.3933233097
  N        12.1750693529        9.1547713264       10.3664725150
  O        11.0095095691       10.6833081555       11.6781134086
  S        12.7917776911        6.9938306925        8.8957866662
  C        12.2143648165        9.9785019419        9.1229001723
  H        12.3093161915       11.0084473072        9.3140843882
  H        13.1172101773        9.7162002917        8.5379515461
  C        11.0508128465        9.8101259952        8.2588996242
  H        11.0862653510       10.3950217665        7.3292768310
  H        10.6909046933        8.8025857715        7.9798383160
  H        10.2077588652       10.3718741712        8.6850332505
  H         4.4446867271        1.7090484266       13.0875601015
  C         3.6870710928        2.5044025311       13.1083599711
  H         4.2954418513        3.4197551327       13.3404438304
  C         2.8776758098        2.5501294265       11.8342343525
  C         2.7373742273        2.2695556072       14.2951546173
  C         3.6020157752        2.9621651465       10.5625895683
  H         2.1057627515        3.2444718035       12.0560564945
  H         2.4031636390        1.6323177576       11.5734862926
  H         2.2953395626        1.2752508846       14.2293387591
  H         1.9121058535        2.9544597580       14.3161745686
  H         3.2163070339        2.1648576320       15.3446594680
  C         4.4666713583        1.7904304186       10.0058313550
  H         2.9275246604        3.3470242202        9.7324593962
  H         4.1256398312        3.9098646004       10.8333864344
  C         5.0614663914        2.0641155927        8.6644737291
  H         3.8922912590        0.8910189094       10.0815199732
  H         5.1973919791        1.4719888788       10.7622185321
  C         6.2229137942        3.0422233231        8.8045641617
  H         4.3009920306        2.2740438949        8.0112601632
  H         5.4943770798        1.2691631613        8.1513219463
  C         7.5062434686        2.2908771763        9.0421177610
  H         6.2184852705        3.5311847367        7.8361380182
  H         5.9528934068        3.8162045056        9.5063421988
  C         8.8105680759        3.1375498064        9.2596810461
  H         7.5313883505        1.6890490382        8.1856809852
  H         7.3959811986        1.6039269816        9.8693318293
  C         8.4027132532        4.4924428338        9.9696781758
  C         9.2356405899        3.8807322306        8.0603818173
  C         9.9664174479        2.4899260936       10.0274349208
  C         8.6965428057        5.6532038645        9.2964540162
  C         7.8877505366        4.7617511974       11.2577999083
  C         9.1670711333        5.2761850921        8.0481042046
  C         9.6672683835        3.3080815000        6.8224907635
  H         9.6998865811        2.0177673590       11.0181431109
  H        10.2854732083        1.6524329727        9.3992683696
  C        11.2677992371        3.3688298372       10.2538522778
  S         8.3501889010        7.0867189231       10.0640944661
  C         7.8532010667        6.1369332626       11.4689126067
  H         7.5355189927        3.8866962208       11.9367274573
  C         9.5294370968        5.9426198789        6.9243760106
  H         9.8174737774        2.2457619160        6.8363932685
  C        10.0884941743        4.0221645595        5.7510661625
  H        10.9509001494        4.2447163648       10.8447084591
  H        11.6541129844        3.8223750574        9.3421658043
  C        12.3580424868        2.6385897605       11.1889057475
  C         7.4966922666        6.7378071509       12.7498895623
  C        10.0178709136        5.3803129506        5.7115712236
  H         9.5813652616        7.0474384819        6.8777019465
  C        10.6034213889        3.6257924238        4.5495929182
  H        13.1906847974        3.3559455371       11.3111981745
  H        12.7464017627        1.7552256533       10.5901682135
  C        11.7464497087        2.3832579331       12.6000762061
  C         7.5470779411        8.1363311144       13.0478608446
  C         6.9878251934        5.8618674103       13.8055201220
  C        10.4226265473        6.0998415740        4.4391959186
  C        10.7448547137        4.7364727904        3.7281443965
  S        10.9248633345        2.0761137415        3.8005941510
  H        10.8991276519        3.0598922978       12.8255735013
  H        11.2628261759        1.3591048018       12.6030617481
  C        12.7032959403        2.4919761913       13.8223299753
  N         7.9109659357        9.2001481183       12.1622297792
  C         7.0486728441        8.6071322179       14.2480489874
  C         6.6000038007        6.3363808940       15.0482679411
  H         6.8575825688        4.7665735957       13.6834513418
  C        11.8553881832        6.8867682597        4.5461142763
  C         9.3617682707        6.9326957160        3.6629683222
  C        11.2019263764        4.2447047265        2.4147476821
  C        11.3074872255        2.8909614929        2.3578611783
  H        12.6542977153        3.5166535157       14.3311930113
  H        13.6870414124        2.4601301997       13.4240466854
  C        12.4940623174        1.3685648797       14.8039177636
  S         7.6142896668       10.5342461982       12.9081461528
  N         7.0681952991        9.9821199413       14.3128854839
  C         6.6062683835        7.7798212214       15.3169877177
  H         6.1803302722        5.6475118064       15.7702250732
  H        11.8471106525        7.7962385583        5.1369228509
  H        12.1489487493        7.2202749352        3.6012791386
  C        13.0747925757        6.0407593753        4.9513441175
  H         9.1776029388        7.7450632571        4.3236849066
  H         9.9053226095        7.2764123234        2.7962450317
  C         8.0776633988        6.1823150304        3.3678982745
  H        11.3834082811        4.9508399419        1.5871912632
  C        11.5918688155        2.1185046598        1.0968275957
  H        11.4720329139        1.3469674891       15.0550172487
  H        12.6712556782        0.3730221017       14.3923529559
  C        13.3733762372        1.6127434087       16.0123843868
  C         6.2949458755        8.5048925058       16.5221152319
  H        12.8648026378        5.5366972575        5.8963255473
  H        13.2160174984        5.1728513499        4.2445771305
  C        14.2432698507        6.9814073417        5.1566858757
  H         7.7687102383        5.6773253321        4.3288336002
  H         8.2269160860        5.2766370076        2.6611407425
  C         7.0199405864        7.0207124121        2.7149440463
  C        11.7091199207        0.6556968960        0.9027726184
  C        11.9094643609        2.8718324861       -0.1671333149
  H        14.1016064510        2.2265881238       15.4752142704
  H        13.8149716589        0.6536678313       16.3359425315
  C        12.6705683584        2.3272082272       17.1743430896
  H         6.4340740474        9.6056287531       16.5100460688
  C         6.1201360907        8.0838201331       17.8221017818
  H        13.9712686743        7.5561446583        6.1473093302
  H        14.2053421534        7.6430895554        4.2747286808
  C        15.5509278330        6.2549438257        5.3285550185
  H         6.5794836568        7.7738262852        3.3966618633
  H         7.3848405096        7.6854919422        1.9237341228
  C         5.7553896487        6.2578673815        2.1750724783
  N        11.4278880520       -0.2563867537        1.9420726419
  C        12.1156149074        0.0446072865       -0.2431965728
  C        12.2093328046        2.2075529871       -1.3611205650
  H        11.8573190514        3.9469151961       -0.2013627344
  H        11.7005229214        2.6525593854       16.8361232087
  H        13.2991152526        3.1368579293       17.4654186972
  H        12.6197332694        1.6750166882       18.1614929908
  S         6.0327417886        6.4739175162       18.3271471285
  C         6.0442164278        9.1412061762       18.8288244969
  H        15.5820753354        5.2994018454        4.7532475488
  H        16.4816835451        6.8070817004        5.0730749553
  C        15.7265541006        5.8254561993        6.8357053712
  H         5.0382192099        5.8231827664        2.8735674816
  H         6.0565610216        5.3642646570        1.5488138889
  C         5.0434492723        7.1997077858        1.1791357488
  S        11.6007252589       -1.7557542231        1.4077924179
  N        12.0750731885       -1.3725848489       -0.0834881211
  C        12.3512276632        0.7731029920       -1.4159028765
  H        12.5194775029        2.8440099479       -2.1698495269
  C         5.8693402271        7.1974065009       19.8496801496
  N         5.8783938638        8.5742250743       20.0019758458
  O         6.0925590403       10.3616262749       18.6775785536
  H        15.5153955084        6.5661870957        7.5932702623
  H        14.9245292701        5.1320201371        6.9762443729
  C        17.0109370299        5.0584554323        7.2720688315
  H         5.7313341195        7.6083218456        0.4159363395
  H         4.3208021862        6.5091417291        0.6153784231
  C         4.3084317648        8.3331434439        1.9766882026
  C        12.8042497959        0.0018505398       -2.5823820213
  S         5.5895433350        6.2714286218       21.3135915526
  C         6.0337900992        9.3462103709       21.1927059757
  H        16.9235747787        4.7713357986        8.3056737310
  H        16.9860241360        4.0372131181        6.8572839095
  C        18.3049121349        5.8773669389        7.2242585505
  H         5.0039211495        8.9162567091        2.5083416925
  H         3.6206046192        7.7980641282        2.6178799200
  C         3.4793623713        9.3131482403        1.1515341757
  H        12.6518980382       -1.0869061100       -2.4823216748
  C        13.3149655167        0.3377133765       -3.7677420160
  H         5.3011616589        9.0941993216       21.9977435247
  H         5.7948384693       10.4065808120       21.0150642207
  C         7.4972845943        9.2205167579       21.6482074780
  H        18.7504077378        5.8766680277        8.2296308878
  H        17.9363834107        6.8730239584        6.9749811380
  C        19.3811245818        5.5876046578        6.0701237471
  H         2.8850803026        8.7587835124        0.5226097438
  H         2.7686372648        9.7928261896        1.8586297236
  C         4.3762960740       10.3967730659        0.4085628142
  S        13.7282518183        1.8540374450       -4.4576847524
  C        13.4866901082       -0.8032810294       -4.8042260732
  H         8.0998934723        9.1260227023       20.7302312672
  H         7.6410453996        8.3347888928       22.2231940839
  H         7.8656351366       10.0769954923       22.2106972002
  H        20.1771321154        6.3630192921        6.1016877039
  H        20.0949825758        4.7765847375        6.3707103363
  H        19.1735246618        5.5146367546        4.9823171571
  H         4.0165082243       10.4894253784       -0.6456041253
  H         4.3515575105       11.4008039759        0.8755664654
  H         5.5010402138       10.1618032094        0.3821576194
  C        14.1728865875        1.0312334975       -5.9074255921
  N        13.9438399370       -0.2611591291       -5.9776169585
  O        13.1057071626       -1.9433200453       -4.5603663974
  S        15.0213622222        1.8654349242       -7.2375864405
  C        14.0906730775       -1.0767211865       -7.2449987203
  H        14.3285470476       -2.0528774047       -6.9629359689
  H        14.9252944708       -0.8867772424       -7.9173227243
  C        12.8180129003       -1.0371086432       -8.0621249390
  H        12.2224544425       -0.0828154369       -8.1509702984
  H        12.1033431243       -1.6964047401       -7.6175518006
  H        12.8285244960       -1.4438947654       -9.1190359536
