352
 i =   109500, time =    54750.000, E =        99.0739463502
  H         9.8125955293        5.4569995274       31.6682416646
  C        10.3779721727        6.1768873513       32.2780120423
  H         9.7027657279        7.0219839522       32.4684454028
  C        11.4475679673        6.6586713120       31.3411403422
  C        10.9505715815        5.5902949492       33.5235711526
  C        11.0530484689        6.9138064388       29.8889721423
  H        11.9281861752        7.4859560453       31.8159620110
  H        12.2602505257        5.9220993570       31.2627652439
  H        11.4763138321        6.3379365168       34.1809924527
  H        10.1319583843        5.1960346989       34.0335358869
  H        11.5833137278        4.7471746569       33.3233356839
  C        10.6022730569        5.6835889076       29.0909771146
  H        11.8855053454        7.3371393732       29.3343906628
  H        10.2794461951        7.7301576458       29.8115062095
  C        10.7761289859        5.9994614399       27.5920011764
  H        11.2653182007        4.7909874824       29.3462074808
  H         9.6433049001        5.4342836964       29.3388730319
  C         9.8404560858        5.1212834524       26.7867329701
  H        11.8065754236        5.7114653989       27.3568067905
  H        10.7236995191        7.1116424562       27.3927395491
  C         8.6246936451        5.9068720935       26.4426222297
  H        10.3876155047        4.7467036387       25.8810361154
  H         9.5548360591        4.2642322965       27.2759088010
  C         7.3841329649        5.3475618618       25.6934622614
  H         8.1774209286        6.1225191230       27.4232569071
  H         8.9586842796        6.8764239545       26.0394768066
  C         7.0293571357        3.9400567066       26.3261962762
  C         7.8225227965        4.6729095307       24.3770249466
  C         6.1422994391        6.3532482037       25.5933433866
  C         7.4139786569        2.8483716782       25.5558630365
  C         6.4180930637        3.4222233844       27.5164129544
  C         7.9208997636        3.3201314647       24.4097775831
  C         8.1356095511        5.2362378770       23.1417283550
  H         6.4003046961        7.2272553476       24.9299960018
  H         5.8858448912        6.7081123075       26.6081996986
  C         4.9391052638        5.7549479388       24.8423077092
  S         7.0386900833        1.2570468645       26.2647643570
  C         6.4886257844        2.0787099829       27.6383469508
  H         6.0517343775        4.1851431583       28.2578068557
  C         8.2919933119        2.7009206190       23.2574586631
  H         8.0415221250        6.3045952391       23.0559983577
  C         8.5652637466        4.5224833445       22.0559249151
  H         5.2749999211        5.2972093712       23.9204707624
  H         4.5741026280        4.8936888074       25.3881698538
  C         3.8055367901        6.7295393525       24.5621331100
  C         6.1284221073        1.4411018454       28.9541474751
  C         8.5936830888        3.1977162702       22.0242287565
  H         8.3069254270        1.6457908259       23.2949237329
  C         9.0310420115        4.8975340246       20.8345393357
  H         3.2503052698        6.4192915040       23.7526215049
  H         4.2222096902        7.6652536524       24.1798317137
  C         2.8950608563        6.8934326197       25.8067790379
  C         6.1479591778        0.0419115808       29.2052077573
  C         5.6508202024        2.1959235841       30.1629990640
  C         9.0638510779        2.4171306752       20.7737534777
  C         9.3049906222        3.7579912857       20.0089142781
  S         9.3947424123        6.2916493711       19.9601597207
  H         2.1155611442        7.7178247458       25.6127199149
  H         3.4873970334        6.9307909494       26.7859265919
  C         2.0563034694        5.6235239437       26.0865241959
  N         6.4866781943       -0.9611764708       28.3125807082
  C         5.7964700827       -0.5556051133       30.4356859447
  C         5.2671715317        1.6250155124       31.3246485738
  H         5.5785203866        3.3287788911       30.0706523236
  C         7.8839729736        1.6244174810       20.0587595652
  C        10.3353094741        1.5353824458       20.9529203807
  C         9.7206097438        4.0964290125       18.6817061419
  C         9.7357379474        5.4427022797       18.4997887908
  H         1.3420433368        5.3919403669       25.2657889976
  H         2.6256396979        4.6702842128       26.0543528365
  C         1.2873882401        5.6881949833       27.3733223333
  S         6.5077534387       -2.3713258906       29.0435060571
  N         6.0860334800       -1.8696298813       30.5618247211
  C         5.4152707985        0.2055046686       31.5357577360
  H         4.8765646510        2.2382652605       32.1909613330
  H         7.4714974548        0.7849899561       20.7416989420
  H         8.2756282967        1.1617153317       19.2015244460
  C         6.6467704437        2.4128533910       19.4315988179
  H        10.3871381803        0.8937264072       20.0636183751
  H        10.1725896098        0.8099281458       21.7572376218
  C        11.5706503571        2.3569578121       21.1963959768
  H         9.8391849954        3.3811113853       17.8917554733
  C        10.0749741580        6.1875109255       17.2352835054
  H         0.7349568260        4.7008406730       27.4343339870
  H         0.4377829886        6.3149192247       27.1935920089
  C         1.9291920225        6.0932865132       28.6855052847
  C         5.3027519803       -0.4347437171       32.8041289711
  H         6.8903939771        3.2791876201       18.7569010434
  H         6.2609447402        2.7490151575       20.3352656731
  C         5.6186952313        1.4733894330       18.7688821188
  H        11.3708255106        2.9393490022       22.0627787923
  H        11.6708153343        3.1038957135       20.4260788978
  C        12.8794391602        1.5610646155       21.2616096426
  C        10.2389882994        7.6474023855       17.1240694732
  C        10.3434532017        5.4354873244       16.0050542695
  H         2.1632754785        7.1171947037       28.6441783023
  H         1.2435349332        5.7430254224       29.4432448607
  C         3.2235125773        5.2902877061       29.0355894610
  H         5.7465882421       -1.4179442039       32.8567153041
  C         4.9589298009       -0.0684395756       34.0459779814
  H         5.2146400986        0.8230327808       19.5736818303
  H         6.1013219233        0.8756162878       18.0388672783
  C         4.3960963109        2.1024419500       18.1268813147
  H        12.8497332654        0.8285322939       22.1182790752
  H        12.9680714621        0.9394070514       20.3709158019
  C        14.0308086645        2.5345926811       21.3317946370
  N        10.0293224873        8.5349300805       18.1654175726
  C        10.3918943078        8.3039342188       15.8885252506
  C        10.7329247930        6.1412922382       14.8471847546
  H        10.4587978008        4.3725742619       15.9013039824
  H         3.3337705113        5.3397582717       30.1614315903
  H         3.1135395308        4.2889129143       28.6464059568
  H         4.1686246876        5.7174136282       28.6072526469
  S         4.4487950248        1.5117898818       34.6462620410
  C         4.9759485597       -1.1130004441       35.0797012840
  H         4.0184976863        2.9471006325       18.6964572574
  H         4.7685782295        2.4383975460       17.1501967646
  C         3.2107396161        1.1204502014       18.0389435442
  H        13.8529437911        3.2660976814       22.1591253629
  H        14.1156417181        3.0227377270       20.4154279611
  C        15.3794724493        1.8753258741       21.5595726985
  S        10.0814400423       10.0377345878       17.6018065539
  N        10.4149856731        9.7331278171       16.0493356300
  C        10.6556432166        7.6523740176       14.6942883340
  H        11.0140446121        5.5985366996       13.9425294143
  C         4.3395212564        0.7206637315       36.1875667340
  N         4.4885383928       -0.6214370669       36.2158521596
  O         5.3045003493       -2.2950677101       34.8724904805
  H         2.4300695142        1.6898497163       17.4310500411
  H         2.8408468814        1.0281436947       19.0515577692
  C         3.5257220779       -0.2229209782       17.4605958401
  H        15.4589993915        0.8262555534       21.6522332202
  H        15.9346847180        2.0324189211       20.6174780444
  C        16.0877973337        2.5157371408       22.6630258386
  C        10.8924539193        8.4260103812       13.5209259142
  S         3.9139349978        1.5765203911       37.6527530253
  C         4.4877126009       -1.3882377787       37.4701926522
  H         4.1906407280       -0.1947274442       16.6171585706
  H         3.9287282862       -1.0393446300       18.0863208711
  C         2.2011186311       -0.8050570315       16.7622007724
  H        15.6938652483        2.1205412332       23.5662810116
  H        15.9524455327        3.5676464390       22.6089392802
  C        17.6101609901        2.1187426331       22.6243079242
  H        10.3388660989        9.3307095244       13.5620438835
  C        11.2883291980        8.1660205369       12.2130323990
  H         3.7824091074       -1.0698162943       38.1882055956
  H         4.1112744234       -2.4069759290       37.2827556925
  C         5.8904848467       -1.3250174726       38.1214528773
  H         1.8791577448       -0.3212327760       15.8321274943
  H         1.4132380329       -0.4682438305       17.4619261270
  C         2.3096444822       -2.3127631984       16.5791464574
  H        17.6419628356        1.1306212141       22.1269224979
  H        18.2843496069        2.7993893574       22.1338771987
  C        18.0942895929        1.7004782608       24.0160265051
  S        11.8063220155        6.7087139278       11.5621831851
  C        11.2454998054        9.3039712704       11.2855900660
  H         5.7981810750       -1.5187749259       39.1873493033
  H         6.5228106983       -2.0729164612       37.6842130566
  H         6.2723867249       -0.2751554425       37.9890453978
  H         1.8407148475       -2.7971694290       17.4843870974
  H         3.3157697830       -2.7260196707       16.3061495829
  H         1.6583840363       -2.5838516937       15.7558589157
  H        19.1426269822        1.6999478785       24.1093969191
  H        17.6527394060        0.7508404749       24.2773646827
  H        17.6719508779        2.3397978909       24.7392426720
  C        11.9788701542        7.5967094166       10.0339282388
  N        11.6737935152        8.9042455309       10.0896823198
  O        11.0351804560       10.4252072374       11.6403371145
  S        12.6410414623        6.8924403052        8.5750832700
  C        11.6346120313        9.7678924100        8.9029133063
  H        11.6607546462       10.8020286058        9.2784092179
  H        12.6282097203        9.9665364509        8.3878706708
  C        10.4398859573        9.6896195424        7.9380935296
  H         9.5993303076        9.2528490786        8.4915328196
  H        10.0957931078       10.6160456978        7.4873578927
  H        10.6452075726        8.9209254809        7.1251755090
  H         2.5643009827        3.8434354171       12.3110367227
  C         2.8574374626        2.8326818245       12.5207191767
  H         2.0185239439        2.2707601476       12.1237610666
  C         4.2093815929        2.5672653890       11.9091179924
  C         2.7731793226        2.5303848160       13.9916121367
  C         4.1038499565        2.7466934346       10.3867634773
  H         4.5434600904        1.5451106521       12.1623959102
  H         4.9599766120        3.1921908373       12.3129035650
  H         2.0580902206        3.2153878814       14.4851382562
  H         3.8094049457        2.6700264907       14.4033920621
  H         2.4364688856        1.5001445659       14.1653571447
  C         4.6657876453        1.4958737356        9.6281827356
  H         3.0067293760        2.8582235559       10.1342101412
  H         4.7050561762        3.6337249591       10.1857873647
  C         5.2876713399        1.8485054538        8.3264150057
  H         3.8436141273        0.7928483170        9.4188999278
  H         5.3494817597        0.9088742544       10.2125038840
  C         6.6045303218        2.7131716962        8.3648050531
  H         4.5408851923        2.2652624261        7.6324150987
  H         5.5334945018        0.9678769537        7.7999234727
  C         7.8287759370        2.0318196983        9.0510694089
  H         6.9430323187        2.8532044452        7.2971760619
  H         6.4254136407        3.6911507482        8.7325118165
  C         9.0223872095        2.9869094537        9.1884455466
  H         7.9907947063        1.1245603193        8.5036006388
  H         7.4382104526        1.7016437036       10.0306401556
  C         8.6727267853        4.2584187082        9.7998420778
  C         9.4239102697        3.6968860251        7.9525790803
  C        10.1342139479        2.3619610733       10.0477839388
  C         8.9614970836        5.3819169280        9.1168100340
  C         8.2622866022        4.5803939151       11.0965656450
  C         9.3894171840        5.0503446207        7.8243636615
  C         9.8813034445        3.0562748591        6.8567492549
  H         9.7380517611        2.1905266561       10.9895396692
  H        10.3796931564        1.3243985675        9.6415536295
  C        11.4030631398        3.2579272359       10.1368030666
  S         8.6087285201        6.8204600471        9.9398435880
  C         8.1858463972        5.9247603229       11.3339419393
  H         8.3011509577        3.8109829724       11.9113296942
  C         9.8693375364        5.6727109088        6.7325472086
  H         9.9374175577        2.0021996833        6.8229944608
  C        10.2725603107        3.6799320536        5.7176744824
  H        11.1377963834        4.2311342687       10.5563310412
  H        11.8106130043        3.4265946545        9.1015446243
  C        12.5380614153        2.6148999652       10.9959464356
  C         7.7430948667        6.5050654674       12.6373243728
  C        10.2894999285        5.0415165843        5.6070969985
  H         9.9886489176        6.7612175489        6.8154369276
  C        10.6843048243        3.2399093506        4.5095417216
  H        13.5122309723        2.9933959917       11.0006228287
  H        12.6425548884        1.5517925495       10.6496438091
  C        12.0686629028        2.6870983918       12.5002184739
  C         7.6191347065        7.8604544879       12.9269170560
  C         7.5048759936        5.6745512804       13.8795972485
  C        10.8232369527        5.6909550485        4.4288341433
  C        11.0106231567        4.3095074968        3.6420436699
  S        10.9907488208        1.7698425517        3.7895041856
  H        11.7184005323        3.7027184558       12.6363816473
  H        11.2014643371        1.9799317519       12.5937517765
  C        13.1785006153        2.5714631403       13.4977641455
  N         7.6742409020        8.8609600922       11.9485232022
  C         7.4144796989        8.3582452313       14.1887963086
  C         7.2984016042        6.1927988226       15.1734733610
  H         7.4426490732        4.6028875899       13.8789498290
  C        12.1050013168        6.5129561420        4.6266646688
  C         9.7599199489        6.4817945942        3.7220492919
  C        11.2612462249        3.9394787048        2.2858114253
  C        11.3095530917        2.5832156307        2.3264540771
  H        13.6085567115        3.6253662912       13.5835632826
  H        14.0067010396        1.9292930914       13.2515059770
  C        12.6325371333        2.2381694021       14.9261980854
  S         7.6735069890       10.2945561029       12.7496378823
  N         7.4034393960        9.6944681039       14.2448867846
  C         7.1992404897        7.6649811020       15.3851043360
  H         6.9944268189        5.5518844833       15.9735625768
  H        11.8967298111        7.2888513118        5.3841746362
  H        12.4442333118        6.9348155072        3.6869369669
  C        13.1753543667        5.5958857201        5.1604562390
  H         9.5566661451        7.3316091910        4.3731133925
  H         9.9903559134        6.7926390419        2.7488964527
  C         8.4325694991        5.7441222248        3.5428533703
  H        11.4970697837        4.6887146345        1.5413033198
  C        11.7581009384        1.7264098153        1.2131701690
  H        11.6763374186        2.6645431172       15.0895023212
  H        12.3859315509        1.1861859161       14.8634160005
  C        13.4724506668        2.3130605534       16.1293153061
  C         6.9888597690        8.4022973771       16.5630239527
  H        12.8191324585        5.1185996893        6.0743053144
  H        13.4493463089        4.7042244677        4.5777974522
  C        14.4351171614        6.4742413682        5.4862431530
  H         8.0440821341        5.5143971364        4.5444940206
  H         8.5579633868        4.7942457103        3.0245266660
  C         7.3374995949        6.6271295188        2.7977284985
  C        11.6866971306        0.3333804734        1.1492509545
  C        11.9829172056        2.3451011919       -0.0952845605
  H        13.8141658351        3.3352969952       16.0091747418
  H        14.3516806012        1.7246414190       16.0275558846
  C        12.8305962589        2.2471135113       17.4628102274
  H         6.9981257363        9.4686063959       16.5332972551
  C         6.6006248050        7.9945800605       17.7900260636
  H        14.2859450096        7.3499975422        6.1291750600
  H        14.8611939804        6.8760682359        4.5441318320
  C        15.5012575328        5.5611823658        6.1181898375
  H         7.0797865186        7.5131263630        3.3336594049
  H         7.8021773063        6.9192782198        1.7975632547
  C         6.1233920534        5.8069653548        2.4196516908
  N        11.2688601278       -0.5502779984        2.0998546366
  C        12.0350861739       -0.3674196380        0.0088042845
  C        12.3710138536        1.6650199026       -1.2380314859
  H        12.1054574673        3.4132613072       -0.1122858966
  H        13.0537707972        3.0596721387       18.0920333907
  H        12.8633108031        1.2537138493       17.9402726880
  H        11.7674620673        2.4253681344       17.2705344749
  S         6.2322536089        6.3243238043       18.2446737049
  C         6.5536544505        9.0365109839       18.9161667000
  H        15.1097579634        5.1638213067        7.0530476992
  H        15.6669626744        4.7057254905        5.5011950212
  C        16.8482474220        6.2673510174        6.2419306168
  H         5.7875288159        5.1545602229        3.1974010673
  H         6.4535664696        5.1029075890        1.6207630896
  C         4.9168736296        6.5665882302        2.0611431995
  S        11.4849422746       -2.0906454900        1.6519723662
  N        12.0286458306       -1.7419664527        0.1493944444
  C        12.4062576738        0.2026157605       -1.2219622629
  H        12.5414235643        2.2151004321       -2.1751141039
  C         5.8996585087        6.9572348072       19.8387919005
  N         6.1744982139        8.3000041590       19.9913414559
  O         6.8167232579       10.2358292609       18.9046082995
  H        17.3688753024        6.4423536822        5.2747364527
  H        16.7418217706        7.2784535786        6.6040928393
  C        17.6784058881        5.4327516988        7.1965147103
  H         4.0913933528        5.8091569278        1.9216738953
  H         4.7461509766        7.2336552274        2.8785647079
  C         5.0603180082        7.3018554872        0.6862722167
  C        12.8307532556       -0.5877024464       -2.3122814937
  S         5.5807540909        6.0574275357       21.2701599839
  C         6.0940839770        8.9756222689       21.2482466091
  H        17.2504157346        5.2663590121        8.1588189878
  H        17.8419780534        4.4295662291        6.8567336078
  C        19.0457072036        6.1767843527        7.4995765571
  H         4.9398187718        6.5161283737       -0.0317057201
  H         6.0226397208        7.6735343036        0.5251284399
  C         4.1520953665        8.4992377390        0.5583208584
  H        12.7687414620       -1.6042444380       -2.1704669591
  C        13.2592181626       -0.2538578478       -3.5730823012
  H         5.2938324010        8.6492507965       21.9292676873
  H         5.8239809086       10.0796396682       21.2119366530
  C         7.4870384400        8.9412059275       21.8736173812
  H        19.6739216103        5.6662067870        8.2316355285
  H        18.8420297049        7.1320802224        8.0470617029
  C        19.8319105181        6.3372564339        6.2666460664
  H         4.1870119242        8.9291396732       -0.4649462171
  H         3.2096037734        8.1062571494        0.7807242319
  C         4.6312402866        9.7900343992        1.2873087316
  S        13.6723604799        1.2364825980       -4.2915586572
  C        13.2572187193       -1.3729694377       -4.5475947486
  H         8.2142978967        8.4797953910       21.1885160858
  H         7.4030281650        8.3892366323       22.8353671183
  H         7.8327630513        9.9520889882       21.9387561986
  H        19.4484630748        7.1614504894        5.6296926324
  H        20.9001975776        6.4345708276        6.3704845430
  H        19.7089979066        5.4489836533        5.6379202930
  H         4.4845715252       10.6487858449        0.5685938690
  H         4.0948154651        9.9383539021        2.1983327176
  H         5.6887634862        9.7402466410        1.5012999862
  C        13.9614011028        0.4281690218       -5.8325088793
  N        13.7548588112       -0.9051298236       -5.7623477362
  O        12.9823253728       -2.5447919266       -4.2909271408
  S        14.7984843654        1.1194812054       -7.2488765204
  C        13.7521660698       -1.7011124862       -6.9149244374
  H        13.8874798233       -2.7344936096       -6.6995468736
  H        14.7246314819       -1.3699200190       -7.4204998114
  C        12.4789957898       -1.6589631260       -7.8307396340
  H        12.4449299601       -2.2919633600       -8.6929347330
  H        12.3389839683       -0.6483888548       -7.9628508789
  H        11.5707112516       -1.9076265473       -7.3354897110
