352
 i =    52700, time =    26350.000, E =        99.7021375222
  H        10.4003671126        3.8671134912       32.4641837050
  C        10.8792804909        4.8184593493       32.7174044572
  H        10.3840847041        5.0371521557       33.6386818342
  C        10.5331301494        5.7660397507       31.5159296514
  C        12.4114391936        4.7422785077       33.0692911348
  C        11.0250112353        5.3998948104       30.1139220213
  H         9.4333489718        5.9553691154       31.3906630208
  H        11.0519571921        6.6995039264       31.7184796423
  H        12.9241376642        4.5669816913       32.1432285889
  H        12.7852798755        5.6267119950       33.5426093697
  H        12.6277093695        3.7917113943       33.6346273817
  C         9.8621104304        5.1740922507       29.1796092854
  H        11.6769210930        4.4738988797       30.2506043940
  H        11.6356056347        6.1933159827       29.8394759432
  C        10.4723516361        5.0568928234       27.7850216100
  H         9.2163536329        4.3158393352       29.4644043377
  H         9.2108737865        6.0367631408       29.2676349761
  C         9.5960305394        4.3764017620       26.7136446049
  H        11.3562026636        4.4193046013       27.7394879213
  H        10.5480993223        6.0554490508       27.3416105918
  C         8.3229477176        5.2832298607       26.4330851218
  H        10.1355621022        4.2024536400       25.8372168080
  H         9.2347626392        3.4074895721       27.0896486032
  C         7.1592944109        4.6116369423       25.6388794971
  H         7.9814992425        5.5617359108       27.3804221855
  H         8.5214455795        6.2788920035       26.0938361611
  C         6.8957440820        3.2281367095       26.2403689146
  C         7.5925911049        3.9486587595       24.3458375221
  C         5.9198923969        5.6250025971       25.6786287399
  C         7.1160413775        2.1468366351       25.3772513751
  C         6.3252904344        2.7560093037       27.4097078109
  C         7.5884791908        2.6201562875       24.2089204025
  C         7.9802420099        4.6397643658       23.1480288803
  H         6.2958706637        6.3944620776       25.0454335738
  H         5.7906491380        6.0992797892       26.6637801122
  C         4.6633281045        5.1460049200       25.0394729404
  S         6.9954177715        0.6579405084       26.0689189324
  C         6.2853027536        1.3581312705       27.4470771865
  H         5.9338414080        3.3964579945       28.1520926119
  C         8.0437004742        2.0509354195       23.0458015290
  H         8.0608029985        5.7012271956       23.1843284231
  C         8.4192624402        4.0369040775       21.9820275386
  H         4.9335835500        4.7785253793       23.9380729782
  H         4.2399581979        4.2646691113       25.6240614891
  C         3.4459799580        6.1076398302       24.9874875786
  C         5.8104272823        0.6680917562       28.6505722691
  C         8.4110041355        2.6956524961       21.8522616503
  H         7.8993179196        0.9518062936       23.0351644257
  C         8.8192326282        4.4718456379       20.7481446722
  H         2.9149509043        5.7289292402       24.0440780630
  H         3.7054422611        7.1565849004       24.7601613792
  C         2.6417537340        6.1560312808       26.3241270859
  C         5.8690733020       -0.7208384682       28.9494967801
  C         5.5490745604        1.5011140182       29.8055285627
  C         8.8644027733        2.0221703047       20.6667793005
  C         9.1381336304        3.3892191755       19.9589588329
  S         9.0561570512        6.0106306744       20.0869573614
  H         1.9648562876        6.9122423587       26.2013095479
  H         3.2665521754        6.4491378224       27.1208068242
  C         1.8502762049        4.9330707534       26.7487797106
  N         6.2841966825       -1.6694513885       28.0053653263
  C         5.6115413546       -1.3174081212       30.1857745051
  C         5.2303852381        0.9151371516       31.0451833393
  H         5.3723149729        2.5582375639       29.7522972170
  C         7.8720245681        1.1583737475       19.9145954423
  C        10.1799447054        1.2138536124       20.8473154964
  C         9.5548913190        3.8919270214       18.6944903673
  C         9.5370143155        5.2696291291       18.6190059414
  H         0.8436016045        4.8546607443       26.3083525146
  H         2.3431516732        3.9542819395       26.5054871702
  C         1.6500541070        4.8839727761       28.2903137990
  S         6.1751426522       -3.1284441791       28.7579948017
  N         5.7689305012       -2.6795070447       30.2069055178
  C         5.2090017505       -0.5290848233       31.2712556085
  H         4.7779822282        1.5806255997       31.7910848248
  H         7.8080855912        0.1764825219       20.4582235870
  H         8.2663069446        0.9799869361       18.8511188335
  C         6.5168109845        1.8025114229       19.8616158515
  H        10.5048900873        0.7883924823       19.9205661908
  H        10.0470047892        0.4091718271       21.5779432080
  C        11.3732555517        2.1060271264       21.2480801306
  H         9.8342310903        3.1993296975       17.8796128645
  C         9.7506165197        5.9926995145       17.3304267711
  H         0.8462656765        4.1218082486       28.5775998225
  H         1.3390013379        5.8171357117       28.7778802340
  C         2.9801389325        4.5647071854       29.0713264927
  C         4.8986063886       -1.1931227161       32.4980725252
  H         6.6604764686        2.8760183102       19.9747711671
  H         5.9339041804        1.6046606514       20.7903010956
  C         5.7454100646        1.5047431405       18.5510757029
  H        11.1051724173        2.6335650069       22.1506123093
  H        11.5308390853        2.7387174169       20.4007353165
  C        12.7147809654        1.3980640111       21.5927030550
  C         9.7655149707        7.4237702568       17.2193870063
  C        10.1603738757        5.2621616342       16.1102715763
  H         3.2704609178        3.5698940591       28.6912052599
  H         3.7977881260        5.2187964174       28.8242360716
  C         2.8444824426        4.6081092407       30.6496078703
  H         4.6328077691       -2.2179420068       32.4161940863
  C         4.7666516202       -0.7865947115       33.7810216789
  H         5.9011768485        0.4357027246       18.2519519327
  H         6.2254348223        2.0882933751       17.7539792631
  C         4.2472485817        1.9382797389       18.7070684031
  H        12.8020295690        0.8158064889       22.5184298014
  H        12.8460345185        0.6739936498       20.7933674168
  C        13.9898523371        2.3442031750       21.6706190802
  N         9.6569897512        8.2885815318       18.2555517208
  C        10.2073963803        8.0424756009       16.0494031238
  C        10.4894213340        5.8462730151       14.8897241658
  H        10.0911571666        4.2316529805       16.0744071472
  H         2.9034495991        3.7106244020       31.1928800372
  H         3.6638636902        5.2383439508       31.0409881660
  H         2.0635214321        5.2102338390       30.9709398332
  S         4.8025089087        0.8185689740       34.3550578306
  C         4.5179555318       -1.9076790209       34.7417914407
  H         4.1211523074        2.8245503787       19.3315279546
  H         3.7716084712        2.2008760094       17.7406006030
  C         3.4196412015        0.7854028541       19.0630416703
  H        14.1498316602        2.7076009361       22.6933415561
  H        13.7240412176        3.2712781369       21.2328242796
  C        15.1646246417        1.7311119688       20.8827063214
  S         9.7834426489        9.7924187966       17.6712099837
  N        10.2506662510        9.4169949911       16.2116445506
  C        10.5940430447        7.3484283572       14.8514436370
  H        10.7572006235        5.2188307017       14.1734791058
  C         4.3655944365       -0.0226096345       35.8640816748
  N         4.1806570376       -1.3467412343       35.8885433255
  O         4.3970852685       -3.0689985834       34.5086159908
  H         2.4694054221        1.1008971859       19.5363726286
  H         3.9385879278        0.1505377557       19.6951114464
  C         3.0131970720       -0.1709833693       17.8692621224
  H        15.2594521001        0.6637076633       21.0810599471
  H        15.0286356515        2.0373576429       19.7907082289
  C        16.4844855502        2.3642752545       21.3390366114
  C        11.0407713048        8.0813677062       13.6982954601
  S         4.0261415403        0.8464948324       37.3653952626
  C         4.0206874891       -2.0864226213       37.1584485294
  H         2.7595088072        0.5259913375       17.0306262458
  H         3.8344487836       -0.6753875056       17.3949890201
  C         1.9600405516       -1.2266950332       18.3092623815
  H        16.4765973755        3.3679937291       21.7342549421
  H        17.0313843051        2.5146872400       20.3485515616
  C        17.5301013676        1.4529009907       22.1053600995
  H        10.9514226122        9.1927732297       13.8861188056
  C        11.4207710317        7.7685182871       12.4019712418
  H         3.2746136662       -1.6597596845       37.7613895455
  H         3.7114177772       -3.0950719228       37.0079298398
  C         5.2843555511       -2.1322968534       37.9935670443
  H         1.1062861395       -0.6537807249       18.5572378925
  H         2.2179119342       -1.6212113697       19.2124181370
  C         1.6791890066       -2.4138366245       17.3503737967
  H        17.6624673731        0.4680923284       21.5281610397
  H        18.4839916025        1.9480707970       22.1595653270
  C        16.9043881144        1.3634050749       23.4626555442
  S        11.7345918349        6.1463228530       11.8202864971
  C        11.7227009602        8.8072380718       11.4317992988
  H         5.2354315811       -2.6213083111       38.9105637266
  H         6.0239223659       -2.7531725098       37.5067500420
  H         5.8408499239       -1.1931631354       38.1690336208
  H         1.0320141482       -3.2035177276       17.7271634149
  H         2.7061367395       -2.9854513764       17.1959213266
  H         1.2210398410       -1.9982294811       16.3931896658
  H        17.5596560735        1.7015941574       24.2358261803
  H        16.5373409769        0.3137065424       23.5403452542
  H        16.0472633946        2.0577372055       23.5917526672
  C        12.3050622895        6.9318182636       10.3828569882
  N        12.3582163306        8.2824197850       10.4064558849
  O        11.4394943243       10.0216141594       11.7109398378
  S        12.8130132986        5.9453857544        9.0185894769
  C        12.7197424559        9.0758144229        9.2000653826
  H        13.0929103332       10.0175204881        9.5637674730
  H        13.5718103896        8.6017780350        8.8047547201
  C        11.6053924814        9.2444962591        8.2148758392
  H        10.6943341025        9.0009811917        8.7292175025
  H        11.5502188928       10.3128224576        7.8075950165
  H        11.7365774658        8.5020849358        7.3827033235
  H         4.8218689392        0.8026221360       12.7196871959
  C         4.2122157484        1.6935144784       12.9810101074
  H         4.8771447864        2.4689381323       13.3372437113
  C         3.4209773225        2.2450293763       11.7511476722
  C         3.2321721499        1.3173686297       14.0435934259
  C         4.3213429793        2.4673637907       10.6022793081
  H         2.9838273049        3.2660421514       11.9652599813
  H         2.6323360679        1.5827710842       11.4179874638
  H         3.0531406207        2.2218255691       14.6766711934
  H         3.6657991286        0.6781547815       14.8282808573
  H         2.3322274643        0.7629793824       13.8219951120
  C         4.9120120738        1.1214155441       10.1432379488
  H         3.6430683881        2.7809945621        9.7766953408
  H         4.8580643082        3.3730018656       10.7269174443
  C         5.5433121372        1.1844315297        8.7253547650
  H         4.2857550456        0.2815033750       10.3540315279
  H         5.7949258821        0.9867894180       10.7857433237
  C         6.7360946646        2.1605888015        8.6928613102
  H         4.7704538194        1.4951886205        7.9841110184
  H         5.8182265702        0.1532723241        8.2622774222
  C         8.0978791690        1.5547606389        8.9111196155
  H         6.6643756869        2.7687808132        7.7194665210
  H         6.4899812990        2.8789899703        9.4445491265
  C         9.2554299701        2.5715531910        9.2360966311
  H         8.3327749521        0.9047023707        8.0789931355
  H         7.8403625197        0.9016714156        9.6826362332
  C         8.7722094873        3.8579503496        9.9215565731
  C         9.6185055594        3.3584791347        7.9598991830
  C        10.4286269628        1.8821737053       10.0033325121
  C         9.0224900575        4.9964782247        9.1504069877
  C         8.2432915551        4.2618487974       11.1895969883
  C         9.5774270490        4.6665084988        7.9286299211
  C        10.1251263220        2.8384768942        6.8084401196
  H        10.0092896404        1.3240658583       10.8109383570
  H        10.8028315970        1.1187370583        9.3187199994
  C        11.6483133037        2.7497733604       10.3450733914
  S         8.5452237626        6.4937131858        9.8445566469
  C         8.0782294537        5.6441926979       11.2859528503
  H         8.0368125928        3.4649617145       11.9644068543
  C        10.0293794277        5.3590731914        6.8184715001
  H        10.1893569671        1.8060040366        6.7827909360
  C        10.5211455774        3.4641660214        5.6613731283
  H        11.3376492311        3.7328097479       10.6252032789
  H        12.1011171071        2.9161109946        9.4456516038
  C        12.6030950451        2.2344971744       11.4296618543
  C         7.6452578118        6.3214805150       12.5479170758
  C        10.4287432515        4.7807740899        5.5840664521
  H        10.0776171707        6.3820127562        6.9235302960
  C        10.8608674643        3.0679869986        4.3634317779
  H        13.6169696876        2.4989669003       11.3321197468
  H        12.6534689562        1.1228892851       11.2490723776
  C        12.0459669081        2.6026283364       12.7501604421
  C         7.6763858473        7.6784130652       12.7741091184
  C         6.8741458818        5.5334714060       13.5716565843
  C        10.8721228894        5.4548090730        4.3128794837
  C        11.0292600194        4.1669009755        3.5508438439
  S        11.1634004103        1.5473898355        3.5075639160
  H        12.5833109356        3.5163673816       13.0559973677
  H        11.0396705250        2.9924865208       12.5031599344
  C        12.0463846433        1.4407545001       13.6347351601
  N         8.3062732492        8.5650780075       11.9001816425
  C         7.3825588134        8.2296624973       13.9597660905
  C         6.4661466990        6.0751221615       14.7949239405
  H         6.7181803004        4.4787042818       13.3971914436
  C        12.1730494635        6.1872708994        4.5448849938
  C         9.7238755174        6.2612228226        3.6957126845
  C        11.2437580265        3.7840678508        2.1640636406
  C        11.4262874471        2.4271934720        2.0097027750
  H        13.0614371302        0.9427192697       13.5738793180
  H        11.1534928622        0.8340159849       13.4708327016
  C        11.8225374566        1.8299777391       15.1566205789
  S         8.0629074541       10.0795905140       12.4742973448
  N         7.6308368921        9.6131432591       14.0052180022
  C         6.8606384081        7.5233678644       15.1096829028
  H         5.8836145403        5.5346866097       15.5514158389
  H        11.9008942777        6.9452194510        5.2292884458
  H        12.5554267485        6.7195476223        3.6852310985
  C        13.3119527062        5.3480313857        5.1204124050
  H         9.6200022253        7.1608264240        4.3282656762
  H        10.0879700807        6.4632017888        2.7565849028
  C         8.3198389389        5.6951017110        3.6400603224
  H        11.4596452810        4.5321689803        1.3980756607
  C        11.8982854794        1.7198971429        0.7758528495
  H        11.3017195712        2.8274350093       15.1798662614
  H        11.0457507246        1.2258912768       15.6668279959
  C        13.0784106190        1.9470815183       15.9247670813
  C         6.6981876798        8.1868820813       16.3698509326
  H        13.0126186460        4.8476021383        5.9979852581
  H        13.4994749498        4.5325040127        4.3098074329
  C        14.5637994966        6.1979349096        5.3115095973
  H         7.8369162990        5.6328766227        4.6032343013
  H         8.2388607446        4.7652970661        3.0797397999
  C         7.2973570048        6.5295321427        2.8632303755
  C        12.0919858207        0.2731623736        0.6106358458
  C        12.2441650917        2.4437378938       -0.4210607868
  H        13.6743597118        2.7443805799       15.3710205715
  H        13.7260023713        0.9991442872       15.8941498902
  C        12.9295595996        2.3853314383       17.4071027115
  H         6.7491011930        9.2241618646       16.3214222410
  C         6.4667219027        7.7141622173       17.6296258857
  H        14.4717902850        7.0261884840        5.9783617473
  H        14.7528187456        6.7624926955        4.3229839931
  C        15.8755915170        5.4011976827        5.5710266005
  H         7.2259793083        7.5332380369        3.1766913664
  H         7.5992171778        6.6621774821        1.8451360661
  C         5.9321416608        5.8303168483        3.0320191508
  N        11.7270099723       -0.6236927521        1.5975810029
  C        12.5553736737       -0.3519721642       -0.5302534831
  C        12.6020486878        1.8349669503       -1.6361042845
  H        12.0421848103        3.4993154836       -0.3708154357
  H        12.2482625628        3.1825607548       17.5488950499
  H        13.9357410067        2.6916968211       17.7345873336
  H        12.6119673671        1.5536115108       17.9515820662
  S         6.0746815891        6.0453494627       18.1212066043
  C         6.3774897824        8.6237243540       18.8331570915
  H        15.6956734206        4.3240105778        5.6393530183
  H        16.6058268003        5.7046051155        4.8163766602
  C        16.3915540445        5.8471881165        6.9884043212
  H         5.5166468019        6.1749049525        3.9489253963
  H         5.9576608341        4.8026562501        2.9736839965
  C         5.0140055849        6.2352214813        1.9562021913
  S        12.0183327477       -2.1567342815        1.0612198914
  N        12.5560081637       -1.7488991013       -0.3978849953
  C        12.7907159598        0.3400447298       -1.7291353608
  H        12.6124278564        2.3957044421       -2.5332034845
  C         5.9734081493        6.6131869570       19.7647704487
  N         6.0533701723        7.9247958989       19.9162137352
  O         6.5856034338        9.7994354594       18.7693482006
  H        16.4340741450        6.9135620259        7.0401967217
  H        15.6387844835        5.4412357354        7.6664231248
  C        17.6951085609        5.1873244956        7.5275671984
  H         5.5149687261        6.4173495713        0.9845018812
  H         4.5170183621        5.2662467466        1.7876113920
  C         4.0796651528        7.4264851561        2.4604768902
  C        13.2125035200       -0.3798546541       -2.8782321737
  S         5.5722737428        5.6813487787       21.1942893609
  C         6.0282101049        8.6129307360       21.2547282529
  H        17.6250357875        5.0938081390        8.6187371986
  H        17.7364990886        4.2130577319        7.1700842059
  C        19.0437957525        5.8871261615        7.1841234387
  H         4.3693961554        7.8015879486        3.4373651102
  H         3.0119872637        7.1395707462        2.5575217056
  C         4.0142217423        8.4880173498        1.3859729774
  H        12.8876225657       -1.4065467812       -2.8350407329
  C        13.6939225207        0.0153453348       -4.1339727525
  H         5.3989441256        8.3459162337       22.1547639667
  H         5.5269201583        9.6066137098       21.1859706234
  C         7.5259431518        8.9222802546       21.7159080545
  H        19.8303512760        5.6669289220        7.9638612203
  H        19.0067869348        6.9331347819        7.1643042238
  C        19.6146935243        5.3906975454        5.8655529893
  H         3.9577788169        7.9938174709        0.3485801280
  H         3.0143403283        8.9389545576        1.4701864960
  C         5.0591922578        9.6163072813        1.4658293895
  S        14.4383458887        1.6040948427       -4.5225708590
  C        13.7077636704       -0.8833396289       -5.2318484247
  H         8.1687494391        8.0426763117       21.9457183296
  H         7.5683231980        9.5982055007       22.5664117693
  H         8.1406017805        9.4460423581       20.9685383693
  H        20.6446964856        5.6739533333        5.7319070416
  H        19.5718511788        4.3456683599        5.8694234067
  H        19.0066387975        5.6804254880        5.0144080896
  H         5.8229202206        9.4397933703        0.7299506977
  H         4.6291617970       10.5865324828        1.3778053735
  H         5.6482828512        9.5109817087        2.3914201818
  C        14.5929431852        1.0338615207       -6.1327250725
  N        14.2940012248       -0.2863668432       -6.2901327844
  O        13.4873034347       -2.0977266347       -5.1511061330
  S        15.2454196292        1.9718986704       -7.4699074186
  C        14.4178406395       -0.9476241184       -7.5806826743
  H        14.7139415206       -2.0548525068       -7.3375526046
  H        15.1308210643       -0.4867052486       -8.2654707472
  C        12.9804727674       -1.0872385997       -8.2530460365
  H        13.1040674379       -0.9610385441       -9.3648663520
  H        12.2549269215       -0.4043861642       -7.8034873906
  H        12.5406021423       -2.1240694688       -8.0965848835
