352
 i =   117300, time =    58650.000, E =       100.2911560888
  H         9.7156592334        5.8559302239       32.3057722534
  C        10.7827438606        5.7373761072       32.2485714901
  H        11.2109273789        6.6880277601       32.0191986164
  C        10.9895242275        4.7105289056       31.0802981124
  C        11.2012896118        5.2280826003       33.6450235106
  C        10.6747213267        5.4628072994       29.8213365413
  H        12.0337114150        4.5819367855       31.1095842962
  H        10.4586151302        3.7355964191       31.1513330337
  H        10.3604390953        4.6488255198       34.1031192242
  H        11.9888808750        4.5298370148       33.5852559045
  H        11.5207291466        6.1012952188       34.3116913222
  C        10.3434624143        4.4897094383       28.7200041424
  H        11.5828271387        6.0131919465       29.6149131593
  H         9.8928919915        6.1963446759       29.9261918568
  C        10.7008100213        4.9574021240       27.3132743681
  H        10.9290919252        3.6204512370       28.8908165704
  H         9.2891880057        4.1302246179       28.9019975569
  C         9.5778785621        4.6033592696       26.3129766976
  H        11.4804101378        4.2550429933       27.0609756640
  H        11.1533504773        5.9700844184       27.2062064341
  C         8.3146531892        5.4329069738       26.4948509101
  H         9.8944890694        4.9532857488       25.3313803961
  H         9.3004258957        3.5779867754       26.2165670169
  C         7.1013669345        4.8253104989       25.8454199260
  H         7.9953757939        5.3833620598       27.5223460386
  H         8.4327400890        6.4583227284       26.2154856913
  C         6.7058587489        3.4581132526       26.4706916190
  C         7.4365487265        4.1323244768       24.5284270852
  C         5.8214374974        5.7514723056       25.7275951983
  C         6.7790432831        2.3953434746       25.5891368497
  C         6.3166303225        2.9787505454       27.7662271283
  C         7.2954883804        2.7789772246       24.3875301977
  C         7.9125807016        4.7957062760       23.3925558627
  H         6.0804740493        6.6596068674       25.1612615638
  H         5.6417737043        6.1112922684       26.7813565891
  C         4.5894585715        4.9995122281       25.2714915382
  S         6.2784547131        0.9070188996       26.2033914916
  C         6.0897515682        1.6393293650       27.7515415778
  H         6.3158540978        3.6838835857       28.5104280705
  C         7.7209588404        2.2370320757       23.2332731349
  H         8.0446336145        5.8354219240       23.5804593876
  C         8.3741791058        4.2127198634       22.2287645712
  H         4.6864589534        4.6116619912       24.2800617509
  H         4.3491569015        4.1042684311       25.8533493885
  C         3.3540937736        5.8294174286       25.2163526298
  C         5.6038450589        0.8268135392       28.9990085716
  C         8.2520231084        2.8561312703       22.0930054618
  H         7.5504888539        1.1691713131       23.2177117219
  C         8.7814892612        4.5907605826       20.9858377691
  H         2.7434828040        5.3035220474       24.4418915667
  H         3.6539577297        6.8231088392       24.7975205345
  C         2.5966937477        5.9627038618       26.5368806595
  C         5.6119079395       -0.5544779794       29.1473252885
  C         5.3516685879        1.5730429631       30.2664394876
  C         8.6088965334        2.1736362919       20.8646326214
  C         8.9381802061        3.4640492775       20.1661386422
  S         8.9953843990        6.0841442228       20.2026661893
  H         1.6927733822        6.4709444493       26.3157596334
  H         3.2699924132        6.6272522046       27.1770831988
  C         2.2268944727        4.6229961295       27.2495692352
  N         5.9261030197       -1.4514341776       28.1276490723
  C         5.4314165944       -1.1826916630       30.3303547965
  C         5.0323474035        0.9167214582       31.4058616499
  H         5.3715511547        2.6650526939       30.2078250250
  C         7.4333083846        1.3956203146       20.2482498561
  C         9.8151581000        1.2978311556       21.1333888665
  C         9.2596310185        3.9165310448       18.8432782245
  C         9.2119948190        5.2641176662       18.6639710353
  H         1.9472776551        3.9770527364       26.4304492662
  H         3.0695397382        4.1076768867       27.6371917087
  C         1.2315256723        4.7791455464       28.3813835472
  S         5.8792371024       -3.0028554088       28.7329000348
  N         5.4419357305       -2.6172354274       30.2656678079
  C         5.0571128364       -0.5658516025       31.5377565458
  H         4.6863550983        1.4683682242       32.2281768734
  H         7.1395190422        0.6747547632       20.9517772378
  H         7.7918198447        0.8879261999       19.2629791093
  C         6.3045561427        2.2736354252       19.6657496535
  H         9.9409846876        0.7340494304       20.1941216835
  H         9.5585739776        0.5563642893       21.8545302176
  C        11.0772537186        2.1678560076       21.5687852403
  H         9.4292984367        3.0802959911       18.0893560389
  C         9.4740677093        6.0145036289       17.3845135524
  H         0.7982116670        3.8881060163       28.7724297931
  H         0.3762367071        5.3310493960       27.9918984518
  C         1.9532892479        5.5820121431       29.5529844567
  C         4.7385655100       -1.2390232751       32.7484276503
  H         6.6991753853        2.9099966400       18.8063084829
  H         5.9003414511        2.9707953161       20.3919231029
  C         5.0658446376        1.4204432869       19.2166182672
  H        10.8012604189        2.8807485665       22.3394485753
  H        11.4178798553        2.7759675431       20.7812209809
  C        12.4336829780        1.4302459409       22.0929954093
  C         9.5670284803        7.4571200623       17.1954040822
  C         9.8342061259        5.2545576496       16.1706364359
  H         2.5264642154        6.4254944168       29.1562123309
  H         1.1173696054        6.0124367977       30.1715473016
  C         3.0003096293        4.8487726927       30.4451341897
  H         4.8664048028       -2.3248966663       32.6150706876
  C         4.4946836658       -0.8407237705       34.0705020055
  H         4.6577493115        1.0624351176       20.1653335633
  H         5.4446302942        0.5533541589       18.6175062974
  C         4.0566475777        2.2418553818       18.3051059945
  H        12.0197657065        0.6623552222       22.7180689587
  H        12.9628015596        1.0753476420       21.2452924369
  C        13.2220955253        2.2689215015       23.0523838736
  N         9.2476182136        8.3669328708       18.1575233724
  C         9.9493087782        8.1259866624       16.0364316429
  C        10.1651691465        5.9768616075       15.0133410188
  H         9.7056352108        4.1552170806       16.1797519618
  H         3.6190725169        5.6353445720       30.7949830256
  H         2.5405152722        4.2025464071       31.1088040503
  H         3.5641887153        4.2139139078       29.7308669728
  S         4.1112998626        0.7255737998       34.6359715868
  C         4.5545460828       -1.8890028971       35.0874836458
  H         4.0438348847        3.2140545892       18.8324766369
  H         4.4820467481        2.4207045054       17.2820528309
  C         2.6848385042        1.6919747995       18.2552918004
  H        12.7160980410        2.2608800802       23.9615778657
  H        13.1089790114        3.2304216375       22.6673665321
  C        14.6413484707        1.8952817571       23.2712004351
  S         9.3563223909        9.9029967456       17.6314390760
  N        10.0569118629        9.4868637982       16.2038363870
  C        10.2214161515        7.4734784700       14.8408561066
  H        10.3166974488        5.3963624375       14.1484995569
  C         4.0251645474       -0.0098823153       36.2848016696
  N         4.1262957797       -1.3477572863       36.2387128676
  O         4.7422586525       -3.0415251787       34.8217425391
  H         1.9131571739        2.4004840180       17.9370389885
  H         2.4649115054        1.2888605439       19.2126701111
  C         2.6323774998        0.5124948291       17.2964668604
  H        14.9242145757        2.4347463894       24.1584715373
  H        14.6794607296        0.7413057209       23.3076688761
  C        15.5323304169        2.4592311100       22.1096992085
  C        10.4938516283        8.2560579956       13.6565028567
  S         3.3753635698        0.7470002590       37.7151480294
  C         4.0447418724       -2.1823797783       37.5149816290
  H         2.1510859219        0.7246905282       16.3132804634
  H         3.5948140629        0.1585388712       17.0557376928
  C         1.8900737163       -0.6506336803       17.9759136933
  H        15.8902477470        3.4841011055       22.3812365086
  H        14.8887516739        2.5117873941       21.1940759282
  C        16.7901574594        1.6456285900       21.8579499855
  H        10.2851866192        9.3108962719       13.7289109892
  C        10.8387446242        7.9226173062       12.3940613601
  H         3.1960521779       -1.8368376794       38.1287770414
  H         3.9809467881       -3.2549793319       37.2960741915
  C         5.3092541820       -2.0064618488       38.3067180267
  H         0.9206069522       -0.2496662370       18.2330391911
  H         2.4461407271       -0.8017273502       18.9282849810
  C         1.7365387047       -1.8714091946       17.0546087134
  H        16.5135701099        0.5977425191       22.1226206600
  H        17.0254781424        1.7933391560       20.7857320782
  C        17.9102972909        2.0206395793       22.8612386583
  S        11.1924944019        6.2892475153       11.8960735691
  C        11.0294028475        8.9529151707       11.3732402040
  H         5.5722343497       -2.8332335629       38.9358882823
  H         6.1230004135       -1.9405609702       37.5003200131
  H         5.3682456724       -1.0871937065       38.8310580070
  H         1.6032776013       -2.7449281173       17.7327170222
  H         2.6858878484       -2.0283527727       16.5738992525
  H         0.9604080426       -1.7449440927       16.2969145037
  H        17.4932982969        2.4957992780       23.7344881799
  H        18.5454560255        2.7364496780       22.2979287935
  H        18.5104973748        1.2102150371       23.2543381735
  C        11.5969732683        7.0106438619       10.3669559472
  N        11.4881025248        8.3248205329       10.2819975049
  O        10.6700583248       10.1913441138       11.5160961523
  S        12.0486383722        6.2249964270        8.8716053985
  C        11.7347836979        9.1075311825        9.0949049964
  H        11.9685056937       10.1177471084        9.3588648762
  H        12.6069533062        8.7507317408        8.6079528154
  C        10.5416293081        9.0744155609        8.1254704731
  H         9.6115302867        8.6234722584        8.4202867370
  H        10.2349788388       10.0149539504        7.8099289767
  H        10.7716990169        8.5033823250        7.2258196204
  H         2.4134815392        3.5353947391       12.9578884597
  C         2.7108942171        2.5168236782       12.7379452783
  H         2.1697496320        1.7229665520       13.2317759191
  C         2.4434924924        2.2212215778       11.2221467575
  C         4.1031257539        2.3929441571       13.2564742346
  C         3.6118526206        2.5733605471       10.2673743750
  H         1.5772802187        2.6818843960       11.0129769464
  H         2.3579894135        1.1473210525       11.1527304565
  H         4.7605432645        1.8548508228       12.5127567798
  H         4.1613195260        1.8215717136       14.1959717398
  H         4.5629278190        3.3344286966       13.3689747776
  C         4.3715868283        1.3446326547        9.5842233903
  H         3.2529371809        3.3006836590        9.4947711006
  H         4.2844308056        3.2069480156       10.8487271624
  C         5.3050628478        1.6068924568        8.3342148811
  H         3.6158261479        0.6354924684        9.2414890420
  H         4.8773092768        0.8822396122       10.4339306050
  C         6.5072837360        2.5362318033        8.5349333940
  H         4.6765346060        2.0375472820        7.5620659657
  H         5.6453981725        0.6409473331        7.9277263851
  C         7.8037445297        1.7965245540        9.0106269235
  H         6.6668655857        3.1259792020        7.6606312984
  H         6.1003082044        3.0779320847        9.3447348029
  C         9.0187389581        2.7646044985        9.4032521449
  H         7.9844919492        0.9292632777        8.3694159234
  H         7.5348445090        1.3859281018        9.9414762818
  C         8.5566761671        4.0513483841       10.1301900091
  C         9.3171220194        3.4968845338        8.1196610599
  C        10.1479303143        2.0223639603       10.0796761369
  C         8.7187468339        5.1599691700        9.3270155651
  C         7.8990656612        4.3566081948       11.3660633575
  C         9.2072637897        4.8187592226        8.0464673535
  C         9.8338875939        2.9432415112        6.9889255489
  H         9.7822055078        1.4465276272       10.9075574968
  H        10.4553253591        1.2792898795        9.3397642880
  C        11.3761315604        2.8206760649       10.5548490493
  S         8.1942452640        6.6098886626       10.1064261568
  C         7.8768114668        5.6827766929       11.5469552419
  H         7.7249275928        3.5091342725       11.9823054120
  C         9.5560769146        5.4986757438        6.9175175774
  H        10.0392036462        1.8993068740        7.0247496502
  C        10.2093586027        3.5550145353        5.8219426001
  H        11.0751869020        3.8623875045       10.8639831925
  H        11.9009365721        3.1119731769        9.6966765395
  C        12.1651455394        2.0586883860       11.6124476923
  C         7.4869104240        6.3867801436       12.7912803126
  C        10.1046812180        4.8940070342        5.7944414100
  H         9.4350621432        6.5721760444        6.8450485281
  C        10.6759104091        3.1844725129        4.5523362762
  H        13.1233645833        2.5001248740       11.3850615804
  H        12.1096908205        0.9597452155       11.4123402810
  C        11.5823534384        2.4819958025       12.9995271073
  C         7.2857190072        7.8039202475       12.9125792417
  C         6.9615700820        5.5588467214       13.8968579869
  C        10.5286032208        5.5887340195        4.4926897201
  C        10.9392157126        4.3003948884        3.7453332970
  S        11.1703218156        1.7322082325        3.7107395927
  H        12.1862742326        3.3283940768       13.2109575866
  H        10.4873459595        2.8235245834       12.9521372780
  C        11.7368763678        1.3580854516       14.0493747488
  N         7.5165183291        8.7049114954       11.9319564578
  C         6.8937375631        8.4163697148       14.0854798727
  C         6.6093037733        6.1629375021       15.0717249689
  H         6.9657463902        4.4734074991       13.8758285434
  C        11.7739036714        6.5400517387        4.7375389427
  C         9.3964837579        6.3029781505        3.7684958734
  C        11.3410030768        3.9203737948        2.4319561034
  C        11.4461145897        2.5747613341        2.2587680146
  H        12.5962980488        0.8281087046       13.9029573721
  H        10.9027333605        0.6976289758       13.7583582295
  C        11.5650415658        1.8665779852       15.4557797387
  S         7.3406421644       10.2495035630       12.4800101944
  N         6.8653721281        9.8338809588       14.0124101161
  C         6.6320763311        7.6685702163       15.2552313630
  H         6.4503118936        5.5462080075       15.9072510217
  H        11.4082336436        7.2322838153        5.4342731189
  H        12.1382231316        7.0433893113        3.8590181820
  C        12.9352622928        5.7938776735        5.3269770405
  H         9.1226191146        7.1874976469        4.2837255313
  H         9.6745896589        6.4547929789        2.7524766020
  C         8.0898649091        5.4293953100        3.6453862217
  H        11.4755796281        4.7071583604        1.6705634702
  C        11.8811590630        1.7735432474        1.0427562986
  H        11.5036035726        2.9370029687       15.3276633639
  H        10.6576307860        1.4755722615       15.9114874702
  C        12.8683784684        1.8030840338       16.1746155726
  C         6.3630974841        8.3142229829       16.5224711481
  H        12.5521254788        5.2494901059        6.1699439925
  H        13.3507030816        5.0279167804        4.6894542843
  C        14.0866876401        6.6434798235        5.9418789160
  H         7.9849032164        4.8972423589        4.5833019142
  H         8.1739545003        4.5892999121        2.9468545498
  C         6.8572008361        6.3796986079        3.2688931883
  C        11.8957940494        0.3629149827        0.8589629059
  C        12.2482019553        2.4634140035       -0.2108461946
  H        13.6862158053        2.2871476145       15.6006857139
  H        13.1751777620        0.7534261904       16.3067577655
  C        12.6771118467        2.6060079362       17.5563852012
  H         6.5460529374        9.3914124159       16.4718929477
  C         6.1171983573        7.8910861434       17.8321500256
  H        13.5658706248        7.3426305011        6.6056765930
  H        14.5414645805        7.3106395660        5.1326872955
  C        15.0791423537        5.7338298342        6.6984458284
  H         5.9206377890        6.1136019519        3.7436056461
  H         7.0465309522        7.3516193169        3.6173574398
  C         6.6847601541        6.5050266272        1.8178783564
  N        11.3910209370       -0.5580015277        1.7640154777
  C        12.2176190240       -0.2827804904       -0.3310651385
  C        12.5473837192        1.7902524784       -1.4011541333
  H        12.3893570386        3.5465642825       -0.1515261502
  H        13.6306191401        2.9014888510       18.1049581465
  H        12.1399809696        1.8575391342       18.1987185891
  H        11.9955277163        3.4866494548       17.5143378492
  S         6.0042403524        6.2112828069       18.4187339979
  C         5.8784711621        8.8711049154       18.9148305326
  H        14.7470329002        5.4139141570        7.6998784081
  H        15.1479334279        4.7672606685        6.1168110366
  C        16.5214357029        6.3873194858        6.7200448768
  H         6.6877409466        5.5781512197        1.2070213381
  H         7.3739793689        7.2285868420        1.3316642131
  C         5.3145647047        7.1107084028        1.5759940304
  S        11.3977286029       -2.0041303752        1.1839705880
  N        12.1435320912       -1.6962911726       -0.2000353356
  C        12.5560707884        0.3048669835       -1.5370183985
  H        12.7722152740        2.3641162203       -2.3202930625
  C         5.6725540821        6.9432250706       20.0539692059
  N         5.6103243520        8.3026600132       20.1160671791
  O         5.8596633354       10.0894383090       18.6473443487
  H        16.5558462707        7.1644194220        5.9475816128
  H        16.6844188098        7.0348757481        7.6148703802
  C        17.6105797807        5.3360516503        6.7672643225
  H         5.2025901249        7.1487280110        0.4749875030
  H         4.4802447886        6.5330753539        2.0275753239
  C         5.1416475326        8.4438594327        2.1283276589
  C        12.7371237802       -0.5093884305       -2.6823470633
  S         5.3982136944        6.2016629542       21.6034706919
  C         5.5493508067        9.0589524665       21.3504838883
  H        17.3999288981        4.8036862404        7.6784360044
  H        17.5384463856        4.7109049403        5.8984885553
  C        18.9227924380        6.0554879154        6.9677960829
  H         6.0471989732        9.0820402646        2.0248029567
  H         4.9620412565        8.4424275001        3.1721174213
  C         3.9729310035        9.1730183250        1.3785277408
  H        12.1952438397       -1.4526805663       -2.5413924668
  C        13.3167050592       -0.2454361920       -3.8683343886
  H         4.8410194487        8.6242456712       22.0734461507
  H         5.0235804062        9.9685549560       21.0899431355
  C         6.8631341204        9.4657060799       22.0680415366
  H        19.3827915491        5.5385868920        7.7944306778
  H        18.8940453550        7.1135367059        7.0578458247
  C        19.8768186918        5.8752125526        5.7734389675
  H         4.1312183523        9.1469923125        0.2942774286
  H         3.0704514374        8.6380227719        1.5912951857
  C         3.6824367626       10.6017920927        1.7457890954
  S        13.9332897246        1.3212254265       -4.3735090025
  C        13.2898470698       -1.2846137183       -4.9502876669
  H         7.5858615992        9.9358523460       21.4304361376
  H         7.4157659078        8.5740192669       22.4389542707
  H         6.7507140612       10.2136032061       22.8017443965
  H        19.6609430967        6.6051182857        5.0233209896
  H        20.8751463518        6.0326567220        6.0046555378
  H        19.6722046080        4.9749805634        5.1984708529
  H         3.8716741825       10.7066181365        2.8444923970
  H         4.3817611170       11.1607349966        1.1241206649
  H         2.7437411259       10.8862860716        1.4169060719
  C        14.1568169915        0.5027072405       -5.8695875590
  N        13.8875425015       -0.8039530389       -5.9783827764
  O        12.7406241659       -2.3469080512       -4.7782392760
  S        14.6584707813        1.3166536391       -7.3279371244
  C        13.9263250670       -1.5585862374       -7.2398986393
  H        14.0699003371       -2.6114141396       -7.0285485785
  H        14.8543158863       -1.2070932827       -7.6865986470
  C        12.6503725432       -1.3571699149       -8.0468098139
  H        11.8570102594       -1.1732905543       -7.4013617418
  H        12.2342073658       -2.2363105698       -8.5746244509
  H        12.7400352665       -0.5148543574       -8.7088331207
