352
 i =    39000, time =    19500.000, E =        98.6293241113
  H        11.0827892718        4.3051997140       31.9556562846
  C        10.5090487028        5.2524986481       32.0334166340
  H         9.4863789560        4.9658071228       31.9705434079
  C        11.0245008456        6.3107031174       30.9947271470
  C        10.8946998619        5.4703489048       33.4105849550
  C        11.2734699218        5.7131346304       29.5801196636
  H        10.3130196834        7.1169628059       30.9899112410
  H        11.9163123997        6.8063373399       31.4019256284
  H        11.6156812866        4.7018754566       33.6728906448
  H        11.3516514345        6.4324464162       33.6838713177
  H        10.0557595570        5.2085643899       34.0084733912
  C        10.1607024076        5.9633214142       28.5655187859
  H        11.5359467388        4.7027105914       29.5166826451
  H        12.1029130533        6.2790954396       29.1343506533
  C        10.5665598957        5.6245087617       27.1251325061
  H         9.2248840694        5.3991505528       28.9478821189
  H         9.8514700112        7.0015942841       28.5400784399
  C         9.3937594956        4.8818708192       26.5648835319
  H        11.3395013198        4.9060360433       27.2803029369
  H        10.9937700053        6.5503313093       26.6040702673
  C         8.2259098052        5.8807227666       26.2430727643
  H         9.6461802995        4.2972315588       25.7042050788
  H         9.0778933954        4.1273519750       27.3387247139
  C         7.1338613580        5.2425714723       25.4385818547
  H         7.8336043988        6.2705830109       27.1962278524
  H         8.5681935870        6.7359753350       25.6266208738
  C         6.7039346092        3.9662264973       26.0817503814
  C         7.5572655123        4.5754035674       24.1910776141
  C         5.9044247109        6.0894226297       25.1938361248
  C         7.0782653083        2.8555083440       25.2841193475
  C         6.1335757183        3.5768892206       27.2833601653
  C         7.6175607661        3.2119927249       24.0845615575
  C         8.0902402179        5.2112525440       22.9922702928
  H         6.2635605119        6.5752073880       24.2589137013
  H         5.6872354468        6.7252919632       26.0453987657
  C         4.6309639419        5.2596729891       24.7229698812
  S         6.7281574861        1.3308519564       26.0038799984
  C         6.0739213781        2.2179075384       27.4027002281
  H         5.7766522237        4.3821939792       28.0555240239
  C         8.0818164704        2.6458203983       22.9128516836
  H         8.2187250126        6.2737077522       23.0499740075
  C         8.4992965928        4.6765347387       21.8196245941
  H         4.8645099602        4.9271890515       23.6325025226
  H         4.4685400534        4.3564050393       25.3092536844
  C         3.3168606198        6.0126168068       24.7055661285
  C         5.7609449572        1.4807265872       28.6995626435
  C         8.5237528848        3.3000921971       21.7322066637
  H         7.9775123857        1.5519842856       22.8184521391
  C         8.9440127473        5.0798978099       20.6053652111
  H         2.6638800052        5.6923942966       23.9811219222
  H         3.5700227460        6.9027827356       24.2835281810
  C         2.6652316856        6.1870610093       26.1514388425
  C         5.9588702026        0.1133074163       28.9176938923
  C         5.3059350089        2.2598311168       29.8747155318
  C         8.9568151182        2.6442077409       20.4819639732
  C         9.2321394808        3.9994495382       19.8174727760
  S         9.3486576063        6.5266614882       19.9224150241
  H         1.8332364755        6.8432984596       25.9434595829
  H         3.2712553675        6.6640225440       26.8895831548
  C         2.1150684092        4.8925010490       26.5472276749
  N         6.2464866559       -0.8471099771       27.9051619010
  C         5.5967686384       -0.5046868317       30.0888004334
  C         5.0456290415        1.6400093149       31.1273033962
  H         5.0445374314        3.2736579006       29.7310673108
  C         7.8313937122        1.9277704509       19.6619042587
  C        10.1749488324        1.7899228856       20.7062725103
  C         9.5372984180        4.3944723076       18.4888075722
  C         9.6205922090        5.7628228215       18.3800877145
  H         1.5532205565        4.4543390566       25.7049018926
  H         2.9498793956        4.2695965459       26.8367215842
  C         1.1282478463        5.1056069653       27.7224386558
  S         6.2548048988       -2.3464886908       28.5104958082
  N         5.7915723376       -1.9009388991       29.9730688454
  C         5.1819705509        0.2021102976       31.3099798775
  H         4.6069191374        2.1866864810       31.8863795439
  H         7.6662067826        0.9032117725       20.0609111910
  H         8.2195239297        1.8025265087       18.6939537991
  C         6.4798389511        2.6236716377       19.6022187599
  H        10.5049297717        1.2731148391       19.7584213585
  H         9.7685455076        0.9559241397       21.3611658727
  C        11.3775875368        2.4825403411       21.2028289373
  H         9.5935546643        3.7465198155       17.7238542738
  C        10.1222828666        6.4968448897       17.1369330454
  H         0.4568823878        4.2034035029       27.7271576859
  H         0.4103045047        5.8971467310       27.5984139351
  C         1.9095631104        5.3381779008       28.9863656106
  C         4.8839946063       -0.4505023807       32.5063602498
  H         6.6566756823        3.4481395953       18.9417005162
  H         6.0404747354        2.9804422722       20.5263896291
  C         5.4422189122        1.6868675206       19.0844728484
  H        10.9704086987        2.7714177782       22.2146802633
  H        11.5986014617        3.3851048656       20.6501798378
  C        12.5833600528        1.6014731463       21.3693826289
  C        10.1839992946        7.9114981739       17.0477434739
  C        10.2106156903        5.6417417091       15.9246973807
  H         2.6829609509        4.5704963421       29.1588986622
  H         2.5104441860        6.2598415998       28.8245124578
  C         1.1165733411        5.5421516924       30.2390150827
  H         4.9291238536       -1.5324831692       32.4469449460
  C         4.4777335731        0.0425337659       33.7499599707
  H         5.2338767098        0.9814340666       19.9478317804
  H         5.8683772267        0.9988560436       18.4721241703
  C         4.1650174943        2.4446814924       18.6183945716
  H        12.1700603547        0.7020864576       21.8524575063
  H        13.0599397010        1.2774764484       20.4093581345
  C        13.5512048771        2.3930362835       22.2078417371
  N         9.9489824069        8.7936745651       18.0868194212
  C        10.5555706778        8.5212614515       15.8756160093
  C        10.5735057444        6.3242189594       14.7483641849
  H        10.1592154869        4.5779904113       15.9248015232
  H         0.5047801753        6.4628638698       30.0752197649
  H         0.5605844969        4.6814168920       30.3754570802
  H         1.7846059016        5.6114359667       31.0669476342
  S         4.1495270002        1.6761473294       34.3194365482
  C         4.3508001616       -1.0364268589       34.7792133682
  H         3.9712259124        3.2448602544       19.2924580070
  H         4.4916487272        3.0020794976       17.6786809391
  C         2.9073212269        1.5801427585       18.5427412666
  H        13.1978411746        2.3959435670       23.2437624309
  H        13.6162894926        3.4308737165       21.8972116490
  C        14.9764057944        1.8686681523       21.9302518060
  S        10.2571875852       10.3265719434       17.5205306902
  N        10.6602042278        9.8795338858       15.9971244112
  C        10.7247026127        7.7811928497       14.7031599995
  H        10.8203277478        5.7221302327       13.8770847454
  C         3.9398227077        0.8579434431       35.8773824913
  N         3.9870835260       -0.4865530339       35.8926233428
  O         4.4907884006       -2.2982650315       34.5699504818
  H         2.0177591054        2.1140325739       18.2222056687
  H         2.6189286580        1.2527897520       19.5223051907
  C         2.9990659752        0.3111338313       17.6501334624
  H        14.9229334540        0.7777967785       22.0282309513
  H        15.1669679741        1.9572845144       20.8662219781
  C        15.9090950938        2.5543392823       22.8982473139
  C        11.0624346711        8.5383756210       13.5137747839
  S         3.5890729307        1.5764672560       37.4227899172
  C         4.0765498270       -1.3788487608       37.0251059376
  H         2.5418676583        0.5543891871       16.6228306435
  H         4.0993201605       -0.0260982649       17.4682165412
  C         2.3054584714       -0.8811163987       18.3420890048
  H        15.2807022741        2.6855788354       23.8077204781
  H        16.2157042125        3.5229950864       22.4755393679
  C        17.0597060887        1.6220956962       23.4022680721
  H        10.9965646947        9.6208024862       13.5662201749
  C        11.4507860421        8.1821733935       12.2235549332
  H         3.5584063677       -1.0505940375       37.9710009023
  H         3.4625935118       -2.2428026466       36.8947082441
  C         5.5516535849       -1.4853220789       37.4193800044
  H         1.2298123124       -0.5702323228       18.5456550013
  H         2.7273711431       -1.0960351219       19.2869074930
  C         2.3599010843       -2.1011356717       17.4254023474
  H        17.3032465768        1.7377612787       24.4633429455
  H        16.7985047572        0.6062847918       23.2585371317
  C        18.3008567751        1.8018879539       22.5560924088
  S        11.9299439649        6.5743341404       11.8195362954
  C        11.6703307100        9.2021572370       11.1323970090
  H         6.2028180766       -0.9228773485       36.7408558916
  H         5.5949363793       -1.0943387052       38.4087001455
  H         5.9436921601       -2.5276978906       37.5419242581
  H         1.9003608654       -3.0038130999       17.7230593611
  H         3.3909513522       -2.3331673963       17.2056443137
  H         2.0004274118       -1.8068714986       16.3959425638
  H        19.2029740877        1.3951296051       22.9836559112
  H        18.4947753366        2.9391537853       22.3295237711
  H        18.1497179442        1.2773453538       21.6332088462
  C        12.2062427829        7.2324892625       10.1770502250
  N        12.2083842447        8.5577561241       10.0451301924
  O        11.4326733092       10.3904267453       11.2597610127
  S        12.6259019135        6.3571643943        8.7450130839
  C        12.5185778329        9.2435652443        8.7923414611
  H        12.9387752600       10.2958443865        8.9202442596
  H        13.3141606328        8.6921587339        8.2942525175
  C        11.2458229328        9.3703957356        8.0069685929
  H        11.0461599853       10.4714693926        7.9599442770
  H        11.1926419674        8.9187344420        7.0024537005
  H        10.5114809465        8.8873920306        8.5981549855
  H         3.0746951023        1.0588054298       13.5688866947
  C         3.6351298078        1.9188167500       13.3092133199
  H         4.6721621176        1.5341362674       13.1545890399
  C         3.0947112603        2.5950212893       12.0674448324
  C         3.7861194537        2.7721771919       14.5548425129
  C         4.2233318274        2.7858096801       11.0314053451
  H         2.7832249343        3.5899515253       12.2487704837
  H         2.3003897833        1.9941898398       11.5613917317
  H         4.4780058339        2.2358215327       15.2826536881
  H         2.8097168636        2.8971379480       14.9921051514
  H         4.2257533503        3.7941278535       14.3292990775
  C         4.6552660038        1.4842567382       10.3734967592
  H         3.8807280987        3.4182231292       10.2438871455
  H         4.9608906117        3.4545046686       11.4308451964
  C         5.2576260665        1.7428579115        9.0153422603
  H         3.8008300697        0.9280346085       10.2770420369
  H         5.4413679417        1.0463476519       10.9743301386
  C         6.4923533955        2.6922195910        9.0204664192
  H         4.5501670319        2.0594009652        8.2681714559
  H         5.5339315964        0.8284120887        8.5212005267
  C         7.7206332086        2.0414381063        9.5324209697
  H         6.5478823980        3.0521013129        7.9382300788
  H         6.4007462643        3.5341978822        9.6992141090
  C         9.0121920047        2.8798268925        9.5977619529
  H         7.9952866514        1.2647481121        8.8279686717
  H         7.6005007357        1.5437885808       10.4808287717
  C         8.7312693878        4.2023271191       10.3028104850
  C         9.4200341624        3.5238062288        8.3067339700
  C        10.1920525390        2.1567919362       10.3680982329
  C         8.9739910934        5.2603618437        9.4967167643
  C         8.3215102935        4.6221060301       11.6207625458
  C         9.4115663860        4.8722673002        8.2413456581
  C         9.8366382182        2.8670457977        7.1374704407
  H         9.8092327816        2.0007135041       11.4300280306
  H        10.3688468852        1.1833590098        9.9565986587
  C        11.5002929291        2.9754045411       10.3167121917
  S         8.6125392032        6.8425179028       10.2229340254
  C         8.0808744075        5.9903804301       11.6469286125
  H         8.1320374901        3.8247756380       12.3629796318
  C         9.7465536775        5.5322073705        7.0825775227
  H         9.8588824443        1.7945419351        7.1299610540
  C        10.3283328012        3.4889174336        6.0069468544
  H        11.2503504886        3.9619576381       10.5960437911
  H        11.9004849909        3.0719257000        9.3390171412
  C        12.5623344749        2.4031150941       11.2667273121
  C         7.5452601214        6.7689229350       12.8135552462
  C        10.2368458620        4.8858683160        5.9436649521
  H         9.6823109878        6.6227428253        7.0976062654
  C        10.8047383133        3.1790950579        4.7283633433
  H        13.5664145066        2.8616992352       11.1149039352
  H        12.6335004412        1.3979190171       11.0226382563
  C        12.2051994219        2.6496726288       12.7027977874
  C         7.6041335555        8.1509910890       13.0885625351
  C         7.0724043115        5.9175500987       13.9066989676
  C        10.6278676043        5.5479523791        4.6499886388
  C        10.9281223648        4.2716103212        3.8828586940
  S        11.1403243838        1.6609759174        4.0019634361
  H        12.7371559263        3.4308475512       13.1717108599
  H        11.1125925762        2.7181296492       12.7623617298
  C        12.4398002161        1.3774187349       13.4617764353
  N         7.9747822795        9.0941704465       12.1661203016
  C         7.4578073282        8.6361782062       14.3839697627
  C         6.7803217208        6.4080715364       15.1938406499
  H         6.7027177274        4.9256250436       13.7175177708
  C        11.8193129710        6.5097121798        4.6665318791
  C         9.5224835937        6.2915711907        3.9683964245
  C        11.3495802647        3.8473563331        2.5669967064
  C        11.4556083751        2.4834633725        2.4667914996
  H        13.4585230290        1.1158942197       13.3767230411
  H        11.9226431245        0.5146982550       13.1041542117
  C        12.0072790590        1.4647621628       14.9074936857
  S         8.1783838833       10.4725587396       13.0094802954
  N         7.7382505587        9.9406199642       14.4747745280
  C         7.0548241501        7.8451713209       15.5048738069
  H         6.1982969836        5.7437764890       15.8351072602
  H        11.6730784583        7.4132264950        5.2290592715
  H        12.1519313627        6.9589662355        3.7655603155
  C        13.0816854728        5.7428086730        5.1501920239
  H         9.0873394921        6.9982378410        4.6868046790
  H         9.8786121238        6.9826410570        3.1498528297
  C         8.3993232678        5.4718637558        3.3335466440
  H        11.4700289400        4.5290380901        1.7686061454
  C        11.6254802034        1.7011748094        1.2288606078
  H        11.0132694836        1.7748840553       14.9055051049
  H        11.8614039820        0.4553673457       15.2884676371
  C        12.9357855042        2.5210495580       15.6425955877
  C         6.9250043066        8.4967520486       16.8007489013
  H        12.8046773673        5.2660086541        6.1366725630
  H        13.2833961423        4.8323597930        4.5258162382
  C        14.4587046603        6.4149826225        5.3023363980
  H         7.9843852018        4.7193894924        3.9777659668
  H         8.7666382076        4.9297180555        2.4838020109
  C         7.3367976943        6.4110330580        2.8276223339
  C        11.5147385101        0.2663496855        1.1098788552
  C        11.7599459790        2.3997411465       -0.0236073936
  H        12.5495431584        3.4994955938       15.5929893648
  H        14.0226704079        2.4546709206       15.2787533841
  C        13.0469192696        2.2036078400       17.1032819777
  H         7.5509528236        9.4205430818       16.8017655800
  C         6.4474604865        8.1395682975       18.0509344136
  H        14.3947541914        7.2846863515        5.9788816447
  H        14.8757163827        6.6240839257        4.3260312300
  C        15.4682057427        5.4172403723        5.9284972167
  H         6.9699754512        7.1126341186        3.6139075992
  H         7.6844211168        6.9912163341        1.9775449781
  C         6.0121503753        5.7604278644        2.5748842889
  N        11.3566699099       -0.6321168430        2.1517677937
  C        11.8011380745       -0.3822767910       -0.0826149893
  C        11.9762341478        1.7735504896       -1.2270305574
  H        11.7542775171        3.4325361976       -0.0053167609
  H        13.6557044281        2.9340944307       17.6591721062
  H        13.3973250134        1.1614434575       17.3099126786
  H        12.0921104227        2.2385446551       17.5783896985
  S         5.7780452841        6.5925217710       18.5540875961
  C         6.5257438088        9.2242943084       19.0297263990
  H        15.0751475776        4.6745348022        6.5782754779
  H        16.0355860997        4.8876786422        5.1850244896
  C        16.3666642280        6.2612815103        6.7804053792
  H         5.5595965596        5.4544479762        3.5144488020
  H         6.0411914406        4.8331590832        1.9851654152
  C         5.1708603714        6.6695681097        1.6568360462
  S        11.2879765114       -2.1281826085        1.5642621324
  N        11.7570878304       -1.7576576294        0.0414531022
  C        12.1049578920        0.2998651629       -1.2787188789
  H        11.9855148454        2.4397643937       -2.0781874117
  C         5.5914843214        7.3928549122       20.0845751321
  N         6.1516731949        8.6442730099       20.1653809205
  O         6.9107513888       10.3459855194       18.7979315123
  H        16.5955779821        7.0600514258        6.1084517013
  H        15.7715805529        6.7647845195        7.5670719109
  C        17.6379312476        5.4959358675        7.1963424288
  H         5.6767042154        7.1114867482        0.7575845572
  H         4.3657401509        6.0154376026        1.3128864239
  C         4.5569054561        7.8060902713        2.4875525883
  C        12.4238233833       -0.5135863987       -2.3974668735
  S         5.1412433156        6.5842659354       21.5152151264
  C         6.2821079075        9.3359090428       21.4468310296
  H        18.0617905278        5.8888835578        8.1209136329
  H        17.4122655109        4.4422659842        7.3989794710
  C        18.7355595384        5.5736785515        6.0644864183
  H         4.9385433804        7.7258294302        3.4917976470
  H         3.5148890739        7.5775576837        2.6247697050
  C         4.7719900251        9.1975343835        1.8449227339
  H        12.3371540404       -1.5089337027       -2.2281579750
  C        12.8573266056       -0.0957524212       -3.6503906107
  H         5.8759084096        8.8448285668       22.3725854318
  H         5.6758134749       10.1737984939       21.3078297255
  C         7.7479160176        9.8624433346       21.6454401381
  H        18.9422667382        6.6079146406        5.6790011244
  H        18.4117711590        4.9674125397        5.1972254360
  C        20.1096774124        5.1179813745        6.3849243827
  H         4.4716034621        9.9482416216        2.5686188347
  H         5.7954357783        9.4632284196        1.6635067751
  C         3.9130441290        9.3625816023        0.6550873081
  S        13.0549791621        1.5726027830       -4.2210027937
  C        12.9655866212       -1.1250564128       -4.7051404641
  H         7.8814164229       10.0934261243       22.6912865204
  H         7.9896425834       10.7178540664       21.0046700583
  H         8.4848437549        9.0527962101       21.5151232700
  H        20.5285139073        4.4018883111        5.6471396786
  H        20.6427013984        5.9920738133        6.2555219606
  H        20.1943602709        4.8484283920        7.4346375713
  H         2.9370330615        9.8347791666        0.8413517873
  H         4.4473275191        9.8952304011       -0.1020262443
  H         3.7555266791        8.3346578043        0.1948948696
  C        13.7586078983        0.7889366305       -5.7222821778
  N        13.4484580834       -0.5214052679       -5.8854219795
  O        12.6165649824       -2.2842027085       -4.4768966383
  S        14.4683288263        1.6425040373       -7.0869954221
  C        13.7898384241       -1.3282344811       -7.0824997055
  H        13.8187280419       -2.3848581121       -6.7697040686
  H        14.8278297635       -1.2664062561       -7.4013893073
  C        12.7980257496       -1.2972008076       -8.2576358508
  H        11.7701822254       -0.9718572883       -7.9529180328
  H        12.6318548932       -2.2802383441       -8.5573493982
  H        13.1823902310       -0.6722929022       -9.0586815956
