352
 i =   110800, time =    55400.000, E =        98.6544777479
  H        10.2633879742        4.3716487607       32.1071300134
  C        10.5732202311        5.3015006493       32.4967199409
  H         9.6511557007        5.8296193732       32.7051854892
  C        11.4269431601        6.0250704454       31.4562526467
  C        11.1944427830        4.9666953041       33.7954618637
  C        10.6186537578        6.6161092092       30.3685956855
  H        12.0440179347        6.7589558886       31.8860638195
  H        12.0521458223        5.2363786204       30.9993164899
  H        11.1295226220        5.7669947811       34.4499175385
  H        10.7389144820        4.0494719567       34.3228882011
  H        12.2438653908        4.7487976787       33.5449356485
  C         9.9515267818        5.6373195060       29.3456449679
  H        11.2836578676        7.2530069972       29.7606164091
  H         9.8556008845        7.2829523625       30.7686800450
  C        10.3801723245        5.6567102249       27.8367948382
  H        10.0469361310        4.6064027155       29.6030574217
  H         8.8526709317        5.7927677686       29.3858934720
  C         9.3719585085        5.0164637250       26.8797644181
  H        11.3382778771        5.0836256550       27.6985508690
  H        10.5142130064        6.6611114446       27.4828976073
  C         8.2645565390        5.9359399831       26.2878088229
  H         9.8172874797        4.4300859245       26.1147209371
  H         8.7535145735        4.3016298125       27.4908824370
  C         7.1082882845        5.2254759610       25.5258438146
  H         7.8489303954        6.6911658203       27.0489948443
  H         8.7933745993        6.6539633040       25.5443654983
  C         6.7758917441        3.8763858803       26.1091152162
  C         7.5755751585        4.6258692099       24.2301894290
  C         5.8756017307        6.1668510279       25.2550370339
  C         7.0693739429        2.7701440075       25.3092452657
  C         6.3866266035        3.4671970684       27.3718945619
  C         7.6250108674        3.2734714263       24.1698119681
  C         7.9780246255        5.2713143974       23.0550236311
  H         6.2506783774        7.0393418164       24.7363456168
  H         5.4448179257        6.5823497598       26.1988695353
  C         4.6650684731        5.5407268720       24.4066489347
  S         6.7348150818        1.2821598889       26.0414682826
  C         6.3173815257        2.1526200709       27.5221210955
  H         6.2817246960        4.2529709007       28.1367822875
  C         8.0251915556        2.6412545203       23.0311787331
  H         8.0614958980        6.3442129032       22.9543513144
  C         8.2723846553        4.6157941621       21.8720337500
  H         4.9608378807        5.4005154275       23.3125926919
  H         4.4957865401        4.4988134806       24.7389379259
  C         3.3643095524        6.3662784681       24.4566177324
  C         5.9213335228        1.4757633685       28.8129821116
  C         8.2811345822        3.2272395881       21.7842006946
  H         8.0850245672        1.6109346956       23.1417611512
  C         8.7164320298        5.0249647363       20.6730065047
  H         2.5525585158        5.9201354119       23.7410156139
  H         3.5571401283        7.4079623623       24.1494642023
  C         2.7824541624        6.4575142638       25.8531018909
  C         5.8324245268        0.1026592033       29.0626017242
  C         5.4377477976        2.2999218498       29.9585773215
  C         8.7624411145        2.5885202949       20.5779108150
  C         8.9782081430        3.9602202358       19.8714619594
  S         8.9462253699        6.5569225596       19.9022161319
  H         1.9905870339        7.1862530530       25.9607235482
  H         3.4699931338        6.8093909059       26.6232480094
  C         2.2821718332        5.1075775452       26.3864966499
  N         6.2423579606       -0.8458358668       28.1251752702
  C         5.5599578575       -0.4810386438       30.2692674012
  C         5.1826496559        1.7313672930       31.2334513365
  H         5.2241561914        3.3309045834       29.8879555696
  C         7.7980927016        1.7573186287       19.7419848671
  C        10.0618780362        1.8220889229       20.8926159136
  C         9.5110245361        4.4004330339       18.6408553975
  C         9.4579293264        5.7533491196       18.5256308424
  H         1.9229671710        4.5126051434       25.5391506119
  H         3.0674908331        4.4334632989       26.7177203842
  C         1.3729869913        5.2422263025       27.6189876321
  S         6.1254108876       -2.3180959608       28.7397958605
  N         5.5617559862       -1.8406251066       30.2028495018
  C         5.1657834359        0.2963967350       31.3943626016
  H         4.9476747561        2.3988253409       32.0681041205
  H         7.4967982708        1.0385959432       20.4663684113
  H         8.2764551164        1.2639127178       18.8124823239
  C         6.5363435073        2.5688785031       19.2264234070
  H        10.2385468308        1.2118058374       20.0313175843
  H         9.8789621163        1.0944729591       21.7179528275
  C        11.2906302319        2.7643829302       21.2027265194
  H         9.8865421463        3.7651231843       17.8732965020
  C         9.9036441737        6.5262204049       17.3228382394
  H         0.8984162152        4.3558094886       27.9694243251
  H         0.5074645773        5.9091725738       27.3098571926
  C         1.9788500249        5.9437674656       28.8046777139
  C         4.8720309694       -0.3569857635       32.6329817220
  H         6.7551204088        3.3129331907       18.4744760206
  H         6.0376259084        3.1541555472       20.0063373849
  C         5.4769069688        1.5555989512       18.7181143032
  H        10.8532552330        3.4000131828       21.9718552157
  H        11.4390969700        3.2963773472       20.2494083033
  C        12.5340756447        1.8502152193       21.6042591474
  C         9.9485184959        7.9352095398       17.2013591070
  C        10.1482327849        5.7890557326       15.9940522767
  H         1.9959659946        6.9988431054       28.7068551079
  H         1.3161183735        6.0255880136       29.6830621786
  C         3.3344355610        5.4250999028       29.2616163067
  H         5.1265530402       -1.4333700018       32.5942956029
  C         4.6084881223        0.0876985190       33.8930773228
  H         5.1936262442        0.8847069726       19.5164072315
  H         5.8969283175        0.9361797407       17.9176455609
  C         4.2500631442        2.3301879589       18.3668039306
  H        12.4589428319        1.2787127877       22.5085294601
  H        12.6118578069        1.1208400224       20.8081300273
  C        13.7732433593        2.7398271991       21.8364483504
  N        10.0479885602        8.8286822394       18.2862658096
  C        10.3139939470        8.6028750071       16.0233391317
  C        10.3877345522        6.4615235293       14.7961446116
  H         9.9157731441        4.7714976609       15.8454908963
  H         3.5578511373        5.6825585044       30.3170812704
  H         3.3231960440        4.3372413129       29.4795665072
  H         4.2384710108        5.4306657986       28.5069213439
  S         4.3744358914        1.7568093042       34.4511380723
  C         4.5745032597       -0.9243024920       34.9956967887
  H         3.9651536263        3.0835215493       19.1223379213
  H         4.4708616309        2.9613262488       17.5200400479
  C         3.1110130008        1.2768651082       17.9157817203
  H        13.6906225133        3.2876715592       22.7822986606
  H        14.0043709769        3.4018228784       20.9825776818
  C        15.0148862149        1.7878037804       21.8279243735
  S        10.1950934573       10.3361031193       17.7021826075
  N        10.3889151374        9.9963655173       16.1612354402
  C        10.6777673310        7.9556942931       14.8184527657
  H        10.2932155448        5.9647187485       13.8085824928
  C         4.1391081174        1.0167904238       36.0972394701
  N         4.1755942536       -0.3485266636       36.1385592195
  O         4.6739142772       -2.1256443941       34.8415363190
  H         2.2170828469        1.8418984827       17.6586705646
  H         2.9390543628        0.7712727269       18.8900734307
  C         3.3854749092        0.1982108122       16.8398437618
  H        14.9704468409        1.2455104137       22.8370724580
  H        14.9544417036        1.0150592928       21.0664550673
  C        16.3569379855        2.4739388964       21.6773265597
  C        10.9164817929        8.8125318198       13.6632934214
  S         3.4851999699        1.8350425990       37.4671646405
  C         4.0282665009       -1.2228244972       37.3068408443
  H         3.5367664298        0.6713289692       15.8531373793
  H         4.2238890738       -0.4894198548       16.9772823998
  C         2.2803681784       -0.8285763682       16.5894519368
  H        16.4300004486        3.4691230224       22.1946031201
  H        16.3905530858        2.6668060983       20.5901836581
  C        17.5417965708        1.6447229672       22.1529266113
  H        10.5005230078        9.8098240727       13.7848822095
  C        11.4475026272        8.5747935008       12.4090958973
  H         3.3591563852       -0.6670192617       37.9809641324
  H         3.6077368293       -2.1697244283       37.1064897151
  C         5.4079662410       -1.3233772477       37.9685845115
  H         2.2315187789       -0.9499712272       15.4565123647
  H         1.2951473939       -0.3997077624       16.8587335475
  C         2.4422458772       -2.1532049440       17.3457086725
  H        17.4563978914        0.5823806172       21.8398429438
  H        18.5223736245        2.0390630582       21.7813449847
  C        17.6884969755        1.7284728602       23.6235631087
  S        12.0836419922        7.0217206096       11.8503520920
  C        11.5499422865        9.7041628603       11.4732537536
  H         5.4374208697       -1.7844845162       38.9624703053
  H         6.0922885838       -1.9497012632       37.3022811116
  H         5.8970308112       -0.3809289367       38.0364153415
  H         1.6661487798       -2.3973831166       18.0107403596
  H         3.4328105856       -2.2623306009       17.7396048743
  H         2.4162006431       -3.0397416893       16.7678479422
  H        18.5951831907        1.3125240382       23.9920524547
  H        16.8687791697        1.3646544486       24.2488782777
  H        17.7847235657        2.7502245457       23.8352554723
  C        12.3838825238        7.9166458148       10.3432880376
  N        12.2325949941        9.2633421818       10.3634703556
  O        11.1934927288       10.8896036865       11.7665298124
  S        12.7149377136        7.1068973046        8.7942473672
  C        12.4109472353       10.1070458932        9.1980848703
  H        12.7001230138       11.0621512195        9.5562090823
  H        13.1819942201        9.7917699760        8.5534277788
  C        11.0834569022       10.3012919353        8.4515101899
  H        10.4757564437       10.9108009255        9.0136426362
  H        11.3086237240       10.8807122599        7.5470434609
  H        10.5401338022        9.4131511954        8.1353861559
  H         2.2145782397        3.2722865399       12.2793395372
  C         2.9904479774        2.5119838281       12.3762966741
  H         2.4578873247        1.6196980268       12.0271879428
  C         4.1853390206        2.6639227764       11.4238829797
  C         3.3707687633        2.4153959388       13.8084927350
  C         3.8648415826        2.3201851543        9.9864098106
  H         5.0319436889        2.2779191002       11.8738281845
  H         4.4434553632        3.7174885046       11.5434927254
  H         3.4497643011        3.4485327911       14.1214135153
  H         4.3128933940        1.8970143163       13.9678500238
  H         2.5770926204        2.0507300035       14.4049362834
  C         4.9135072973        1.4816758840        9.3579593830
  H         2.8503466272        1.9180779164        9.9649751126
  H         3.7949113468        3.2766770490        9.4361158376
  C         5.6984159517        2.2062523676        8.2415419740
  H         4.4390289187        0.6376382429        8.9240563348
  H         5.5524875316        1.0141640316       10.1493219713
  C         6.7603024591        3.0622357010        8.7660595130
  H         5.1034045133        2.6431099903        7.4851109666
  H         6.1800182740        1.4541501263        7.6686503690
  C         8.0634674644        2.2891487072        9.2225694173
  H         6.9120741872        3.7585754501        8.0171275105
  H         6.4625084772        3.6218275711        9.6675503653
  C         9.2683778354        3.2334827362        9.4068497093
  H         8.4570391195        1.5378931605        8.5042079927
  H         7.8178460399        1.8010539869       10.1198789006
  C         8.9241526649        4.6060605903        9.9980937948
  C         9.8346826753        3.9200994122        8.1688129674
  C        10.4206817731        2.5378886124       10.1508662665
  C         9.2494992105        5.7032264611        9.2493359058
  C         8.3122280394        4.9337980746       11.2154342126
  C         9.7323349633        5.3021437507        8.0247818464
  C        10.3405086095        3.2826047902        7.0658573701
  H        10.1049164754        1.8902998429       11.0236559314
  H        10.7123567263        1.7460111685        9.4821771282
  C        11.6739076473        3.3260880943       10.5931892794
  S         8.9456985016        7.1409066649       10.1334792828
  C         8.0527154955        6.2662874705       11.3292429586
  H         7.9747960545        4.0846813972       11.7850447114
  C        10.1037498928        5.9152986924        6.8706842238
  H        10.2970648354        2.2549801493        7.1065829932
  C        10.6224481623        3.8936922643        5.8549200502
  H        11.3373162221        4.2989513895       10.9165908276
  H        12.3348937626        3.4471648559        9.7865352877
  C        12.3738378223        2.6147154472       11.8313435864
  C         7.5264843120        6.9503238114       12.5156041925
  C        10.6165818074        5.2450378610        5.7523492006
  H         9.9251549812        6.9872583340        6.7030248829
  C        11.0067933158        3.4142441219        4.5652814088
  H        13.3623720003        3.1456274928       12.0089716465
  H        12.7517363514        1.6662590142       11.5614766107
  C        11.4888030188        2.5132240598       13.0303860483
  C         7.6117483755        8.3654242576       12.7297165717
  C         7.1061639461        6.2105706849       13.7315523028
  C        10.9314025276        5.8756449901        4.4217432070
  C        11.1730176945        4.4754867805        3.7284463649
  S        11.2364236872        1.9449626053        3.9176249707
  H        10.6034667741        3.0950242045       13.0500946245
  H        11.1598505592        1.5184778311       13.0419900411
  C        12.3244027117        2.7194388894       14.2160912650
  N         7.9224335052        9.3383263414       11.7987959998
  C         7.3387123842        8.9415301400       13.9819033665
  C         6.8187385892        6.7661078730       14.9511134070
  H         7.0770849997        5.1625966502       13.6766684317
  C        12.2870964125        6.6350128934        4.6188633111
  C         9.7328518588        6.7043861257        3.8836892059
  C        11.5655829460        4.0988427799        2.4246770428
  C        11.5813203176        2.7037404178        2.4419496409
  H        12.4436181322        3.8165180475       14.3319036736
  H        13.3485696600        2.4541876767       14.2008280877
  C        11.6542692567        2.1116713426       15.4451468548
  S         7.8259344054       10.7597819311       12.4720373182
  N         7.4832157877       10.3651214245       13.9558219924
  C         6.9451481371        8.2406721277       15.0919883310
  H         6.5786718932        6.1398360403       15.7482086536
  H        12.1119418357        7.4730520103        5.3513768065
  H        12.5708926679        7.1449197904        3.6926841973
  C        13.4943139856        5.7039932442        5.0473025643
  H         9.5389068395        7.5698232702        4.4814602654
  H        10.0925475132        7.2078659025        2.9301640083
  C         8.4343085972        5.9487233012        3.6404417712
  H        11.6520755094        4.8298440618        1.6432093787
  C        11.9514543869        1.7981222883        1.2901499691
  H        10.7439617734        2.7130392121       15.4981024266
  H        11.3069417084        1.0700102952       15.1795243776
  C        12.3888262092        2.1802170667       16.7330644035
  C         6.8025054305        8.9936340954       16.2866267987
  H        13.1965338640        5.0220819827        5.8961810935
  H        13.7199302372        5.0642314734        4.2336024823
  C        14.7371920422        6.5080977917        5.4369674564
  H         8.3022437771        5.3792393549        4.5245443178
  H         8.6709261044        5.2587839897        2.8468979071
  C         7.2393269951        6.7836667891        3.2930063470
  C        11.9399803386        0.3861931309        1.2710435989
  C        12.5569762357        2.3660571757        0.0838975841
  H        13.2184057807        1.4878951632       16.6547289619
  H        11.7255887446        1.7612627412       17.5310705669
  C        12.8950999908        3.4318459800       17.3291725245
  H         7.1036902583       10.0669124172       16.2669876223
  C         6.3958800471        8.6414240956       17.5366508104
  H        14.4121949074        7.2218994024        6.2050409208
  H        15.2876536584        7.0426428116        4.6876326584
  C        15.5890238019        5.5104712766        6.2558559051
  H         6.6645149885        6.7519385685        4.1996879474
  H         7.5690508215        7.7678070766        3.0414680017
  C         6.3863795490        5.9448337710        2.2948257332
  N        11.4761625565       -0.4677699794        2.2518654097
  C        12.1961842116       -0.3248211123        0.1077301754
  C        12.7970747788        1.6739078278       -1.0794299478
  H        12.8398747844        3.4036255500        0.1537166544
  H        12.1119956800        4.2332319325       17.3182320591
  H        13.6612790910        3.8243716473       16.6362547671
  H        13.2573842800        3.3235273855       18.3602932333
  S         5.9077519092        7.0387526217       18.1122315686
  C         6.3383368772        9.6360745453       18.5983401750
  H        15.2087971945        5.4751125895        7.3034467029
  H        15.5246888501        4.4830789925        5.8164286475
  C        17.0198542329        5.9358495995        6.3457855370
  H         6.2206999055        4.8693677218        2.6332199692
  H         6.9729572548        5.9290076906        1.4067174344
  C         5.0474423235        6.6299653240        2.0767125932
  S        11.3351960144       -1.9706680559        1.7226337246
  N        11.9912540533       -1.6990978665        0.2508301564
  C        12.5817022024        0.2041125500       -1.1384320952
  H        13.1177146491        2.2481713119       -1.9168953938
  C         5.8008857243        7.7849336973       19.7057881709
  N         6.0481028208        9.1120178089       19.8198160044
  O         6.5935764348       10.8190921314       18.3450793442
  H        17.2892504598        6.1026478401        5.3407509267
  H        17.1364674961        6.8746373237        6.8521250663
  C        18.0342561211        4.9396696652        6.9519826884
  H         4.4497064779        5.9214079202        1.5435236207
  H         4.4614838491        6.7689587583        2.9652088906
  C         5.0264917962        7.6637714991        1.0681010323
  C        12.7964107763       -0.6330227953       -2.2979391237
  S         5.0736790038        7.1185076896       21.0831109803
  C         6.1118845281        9.9438386032       21.0622218911
  H        17.8174220896        4.5641386869        7.9657962248
  H        18.1980874507        4.0810254095        6.2895104790
  C        19.3286278212        5.6155014157        7.2456925799
  H         5.0625745853        7.3078698067        0.0207362448
  H         5.9342526820        8.2497853369        1.2471521833
  C         3.9204192886        8.7220882217        1.2341291029
  H        12.1607436849       -1.4905585169       -2.1380248829
  C        13.3578933527       -0.4305016560       -3.5533463438
  H         5.1755126841        9.9463243986       21.6620847616
  H         6.2219884490       10.9292463532       20.8561639945
  C         7.3602499761        9.4673363441       21.8914187572
  H        19.9897310727        5.0974584318        7.8904725454
  H        19.0888548947        6.5270172228        7.8157581300
  C        20.1073887988        5.8462107310        6.0008554672
  H         3.9358341277        9.2564330460        0.3026152094
  H         2.9236512167        8.2857906405        1.4263760631
  C         4.1656483115        9.6114772213        2.4518145909
  S        14.1654787450        1.0549625581       -4.0696678794
  C        13.2388449711       -1.4560437215       -4.5695977851
  H         7.1983300495        8.5830285108       22.4743879308
  H         7.6477404615       10.2529152454       22.5557712839
  H         8.1616083945        9.2296105681       21.1946883774
  H        19.6587044355        6.7296029210        5.4280458931
  H        21.1266331424        6.0418575438        6.2069648457
  H        20.0832826706        4.9608615149        5.3944684158
  H         3.2983924898        9.5982254510        3.0768463254
  H         4.9834864353        9.2597068513        3.0667548186
  H         4.4198775394       10.6836172144        2.2309091762
  C        14.1728114038        0.2497688953       -5.6328820585
  N        13.7882302487       -1.0490970895       -5.6794336200
  O        12.5805843991       -2.4494115958       -4.3402363860
  S        14.8926445316        0.8084467104       -7.1547913977
  C        13.9640004042       -1.9703304749       -6.7504704239
  H        13.7958465118       -2.9541867566       -6.2523292553
  H        14.9375837064       -2.0915304258       -7.1142122698
  C        12.9098201771       -1.8359010744       -7.8646179923
  H        12.8898775487       -0.8524981302       -8.3023108694
  H        11.9771797829       -2.0454797148       -7.4628697171
  H        12.9687887538       -2.5705212344       -8.6164418900
