352
 i =    66000, time =    33000.000, E =       100.0038279948
  H        12.0785493577        7.0884563883       32.1247645123
  C        11.4979275402        6.1846692933       32.1785194461
  H        12.2577734261        5.4408451635       32.3221411577
  C        10.8758276706        5.7972527949       30.8337855218
  C        10.5067726327        6.1180765514       33.3302976857
  C        11.8841510491        5.9293312200       29.7264524374
  H        10.3784453297        4.8381970200       30.9204451921
  H        10.0976496192        6.4775883270       30.6519205162
  H         9.9922138911        7.1003796645       33.4242783294
  H         9.7131359164        5.4538244336       32.9594736045
  H        10.8898875290        5.8008138467       34.3019301081
  C        11.3065190536        5.0444110087       28.6317816192
  H        12.8450236996        5.5311711345       29.9083247788
  H        11.9247961116        6.9823829870       29.3947249669
  C        11.5647721087        5.5902886733       27.2688865983
  H        11.5891094118        4.0603062511       28.7888577115
  H        10.2470986753        5.0575260345       28.8546120587
  C        10.4892189110        5.0828391629       26.2702276746
  H        12.5277920572        5.1755535710       26.8850538681
  H        11.5898699658        6.6758581250       27.1130449666
  C         9.1748685203        5.9173475600       26.1275093062
  H        10.9838764525        5.0353557727       25.3441733487
  H        10.2071900511        4.1486828294       26.6138754118
  C         7.8969877943        5.1746434035       25.4824093519
  H         8.8124345319        6.3054566291       27.0890522748
  H         9.3999665761        6.8063193709       25.5216347036
  C         7.5275665895        3.9275446606       26.1788561336
  C         8.2028461526        4.4569382125       24.2003034635
  C         6.6457247433        6.1126756219       25.2827255183
  C         7.4683762802        2.8725185778       25.3315280995
  C         7.1433141492        3.5212857075       27.4738484649
  C         7.9255555851        3.1450161251       24.0812595328
  C         8.4387514297        5.1546605756       23.0217397321
  H         6.9495625457        6.8329741488       24.6167180290
  H         6.4592396214        6.6463791250       26.2019732986
  C         5.3252570450        5.4457169342       24.8827204090
  S         6.8520417971        1.3593481039       26.0291405037
  C         6.7697058881        2.2142843559       27.4780070185
  H         7.1270315957        4.2434315639       28.2760177727
  C         8.1978301563        2.5446798821       22.8530683556
  H         8.6769320246        6.2463555783       23.1846049303
  C         8.5471124672        4.6031860533       21.8009465198
  H         5.5431230335        4.8371803457       24.0138344058
  H         5.0762928857        4.6677232152       25.6277837253
  C         4.1531059739        6.4745542585       24.6948830697
  C         6.1211600264        1.5878142787       28.7073908103
  C         8.5378430837        3.2254662218       21.7191183105
  H         8.0385289533        1.4863699562       22.7655252552
  C         8.9390058382        5.0039394712       20.5398482677
  H         3.4849893709        6.0707251604       23.9064463287
  H         4.5863833185        7.4074158007       24.2496346935
  C         3.3937668206        6.7462961304       25.9565861694
  C         5.9978134442        0.1699026493       28.9367252816
  C         5.4941759164        2.3795623629       29.7809419259
  C         8.9244870820        2.5481917061       20.4054364924
  C         9.1880252292        3.9385881380       19.7163483997
  S         9.2259533165        6.5464725134       19.7719497922
  H         2.8251871837        7.6335972853       25.9889188626
  H         4.1758790982        6.8537557927       26.6596417850
  C         2.4330285008        5.6019315070       26.4343939132
  N         6.3567126704       -0.7760134841       27.9976675152
  C         5.6813261970       -0.3868936308       30.1633241740
  C         5.1529875062        1.8688952141       30.9886516830
  H         5.4031865842        3.4571381602       29.6261811642
  C         7.6624354161        1.8499823161       19.8151147343
  C        10.2014315625        1.7279849877       20.4393083031
  C         9.6212405290        4.3395666912       18.4777879439
  C         9.6600039203        5.6950979323       18.3335903688
  H         1.6001848886        5.7241946561       25.8112869441
  H         2.8262473256        4.5835515056       26.4402000535
  C         1.8527898652        5.7899995613       27.8823822988
  S         6.2444627741       -2.2653666952       28.6487071716
  N         5.8671386272       -1.8034060660       30.1672099369
  C         5.3550648911        0.4305236653       31.2660639546
  H         4.8824540204        2.5781924709       31.7794229793
  H         7.3410304023        1.0791282730       20.5596453871
  H         7.9037703343        1.3213648592       18.9375236538
  C         6.4820114987        2.6977468096       19.6422341286
  H        10.3151912599        1.4177559957       19.3942126025
  H        10.0208774843        0.7764635479       20.9376446001
  C        11.4158387069        2.5568009985       21.0112283119
  H         9.7497497832        3.6255911036       17.6786238264
  C        10.0299617192        6.4236566796       16.9925493260
  H         1.1679284449        4.9365293498       27.8403691797
  H         1.3561043843        6.7948739498       27.8584452350
  C         2.7668157203        5.5192235330       29.0727956884
  C         5.1421163054       -0.1641149777       32.5810221549
  H         6.6680208647        3.5359402270       18.9452282787
  H         6.2494460216        3.2376542497       20.5795360942
  C         5.2007366408        1.8971395545       19.3589784041
  H        11.0725418347        3.1353727797       21.9136478164
  H        11.6192315446        3.2948238976       20.3011761897
  C        12.6764305903        1.6473836576       21.2542352319
  C        10.0727043054        7.7863503641       16.8675084810
  C        10.1633716446        5.5827113461       15.7630840316
  H         2.9678870862        4.4841460029       29.2423245473
  H         3.7037485325        6.0309915160       28.8771395123
  C         2.1299892671        5.6974576974       30.4902850586
  H         5.5120717989       -1.1714630133       32.6660612608
  C         4.8305075110        0.3515698544       33.8109814989
  H         4.8122464292        1.2956126154       20.1457880407
  H         5.5641145453        1.2836138121       18.5345568362
  C         4.1949710138        2.7436309948       18.6880859024
  H        12.5634066874        1.2542622098       22.2815691807
  H        12.6622301159        0.8424362938       20.5258098614
  C        13.9931168203        2.4626491611       21.2122385599
  N         9.8281376636        8.8186391532       17.7931093344
  C        10.2342266130        8.3215130075       15.5981558916
  C        10.4141757380        6.1484074660       14.5050660618
  H        10.0838920045        4.4819860821       15.7723471634
  H         1.7327736360        4.6814443103       30.8223163641
  H         2.7945805172        5.9383337668       31.2786971977
  H         1.2813296015        6.4724766181       30.6141485818
  S         4.6384863085        1.9821494873       34.2794292408
  C         4.7508302279       -0.6917947007       34.9059189791
  H         4.0667028180        3.5196202223       19.3467603179
  H         4.5157450521        3.2094184293       17.7742456231
  C         2.8239271172        1.9924801188       18.5249503909
  H        13.7532107545        3.4877948504       20.8835192397
  H        14.7283155584        2.0989816072       20.4371908738
  C        14.7310131123        2.5465602047       22.5563779023
  S         9.9326403344       10.2422356832       17.1224483697
  N        10.3025089923        9.7620822033       15.6399424655
  C        10.5430708232        7.6140549199       14.4134595517
  H        10.6083851093        5.4277510470       13.6993822362
  C         4.4293454442        1.3079839452       35.9702890891
  N         4.5691099965       -0.0830955435       36.0967211860
  O         4.8328769975       -1.9269975644       34.7060789893
  H         1.9761897558        2.6928775025       18.3085384788
  H         2.6061410208        1.5094831723       19.4964257696
  C         2.8742902907        0.8309407420       17.5147981087
  H        14.0439916092        2.6486792686       23.3763290548
  H        15.1089858974        1.5891562470       22.8178459498
  C        15.8474668241        3.6357346150       22.6328343846
  C        10.7180752568        8.3704405882       13.2240499804
  S         4.0719437533        2.3318492682       37.4225125726
  C         4.6309715964       -0.8237662672       37.3637995200
  H         2.1556801212        1.0150122673       16.7641193624
  H         3.7913701686        1.0262183339       16.9166112350
  C         2.7886956109       -0.6240037560       18.0055470834
  H        15.8673126976        3.9262812645       23.6408506357
  H        15.4739303426        4.5230292424       22.1098710015
  C        17.2902735589        3.2556212382       22.0117998604
  H        10.3960768996        9.4299791650       13.3550745687
  C        11.2243698502        8.0922599932       11.9923320827
  H         4.1432553419       -0.3127351697       38.1399846677
  H         4.1206352981       -1.7965247776       37.1582865090
  C         6.0605734061       -1.1100432819       37.8361314328
  H         3.4689520151       -0.6541784432       18.9236343053
  H         3.3063297740       -1.3123325282       17.2915947929
  C         1.3905624412       -0.8994640084       18.4468692264
  H        17.2781559693        3.0780940506       20.9512432807
  H        17.7610808584        4.1661532506       22.1297054366
  C        18.0586831647        2.2481429869       22.6876262893
  S        11.7665610053        6.5410808823       11.4993460254
  C        11.4594370909        9.2042605249       11.0465012719
  H         6.2735445243       -0.2398418591       38.5019916476
  H         5.9458632007       -2.0640073558       38.3640957879
  H         6.7176119404       -1.1723225691       36.9274881917
  H         1.4266176388       -1.7785689449       19.1098700720
  H         0.6999954300       -1.1028683263       17.6323559566
  H         0.9311636111       -0.0647176403       18.9404369586
  H        17.4756846182        1.3912456745       22.7455594932
  H        18.1971308379        2.5325009498       23.7460475359
  H        19.0441475060        2.0199280363       22.2428313665
  C        12.2232443367        7.3503401293        9.9890632108
  N        12.0634995722        8.7223539401       10.0113533223
  O        11.2651376201       10.3756790969       11.2984599539
  S        12.9847730149        6.6462246420        8.5566739862
  C        12.4301289571        9.5968950859        8.8673214077
  H        12.7455860909       10.6167878313        9.2261714046
  H        13.2022870685        9.1788353819        8.2984054378
  C        11.1237425099        9.8949107376        8.0646766544
  H        11.3660241036       10.3306002382        7.0933824135
  H        10.5872045733        8.9359411441        7.7927139372
  H        10.4786506609       10.5558114193        8.5376761556
  H         4.8468071107        1.9471129450       12.2928967541
  C         4.1987687750        2.8278139965       12.4909864700
  H         4.8459780384        3.7012453215       12.5824306593
  C         3.1210696448        3.0188994165       11.4770908090
  C         3.6628851489        2.6455912204       13.9981460913
  C         3.6510513031        3.1880104918       10.0285515931
  H         2.5280046849        3.9020062666       11.7769908586
  H         2.3938853987        2.1771037905       11.4340829987
  H         3.7337351276        3.5912161573       14.5386693111
  H         4.2386256662        1.7587332405       14.3430572935
  H         2.6317097037        2.3649187750       14.0609427772
  C         4.3536535045        1.8416945403        9.6388096118
  H         2.8584688704        3.5618423748        9.4333462125
  H         4.2811532067        4.1020501355       10.1396432842
  C         5.0261184648        1.8651351658        8.1874324154
  H         3.6155844755        1.0368140832        9.6718339338
  H         5.1823177475        1.4990578086       10.3138953373
  C         6.2608119420        2.8084872889        8.1703725833
  H         4.4018028423        2.0838778446        7.3007477439
  H         5.2182721309        0.8282583355        7.9987134748
  C         7.5670231961        2.1535001217        8.5430455671
  H         6.3105160958        3.2700347549        7.2326997447
  H         6.1155175421        3.6061593866        8.8530131754
  C         8.7511959115        3.2179023584        8.9437257553
  H         8.0486216732        1.4466102448        7.8543820993
  H         7.3729182011        1.4304584058        9.3469142082
  C         8.3908188423        4.5293986259        9.6432217357
  C         9.2097743652        3.9245518651        7.7612650769
  C         9.8232363700        2.2981014762        9.5221395201
  C         8.6090971944        5.6711676807        8.8386725708
  C         7.8555360829        4.8899251422       10.8471125898
  C         9.1374042786        5.2673440008        7.6298751873
  C         9.6823410551        3.2070194055        6.6445286842
  H         9.4079623045        1.9224135279       10.4541238410
  H         9.9879324902        1.4359626728        8.9504893906
  C        11.1222786134        3.0187260256        9.8813195167
  S         8.2080949304        7.1786867162        9.5520332254
  C         7.7952498140        6.2550614891       11.0021834697
  H         7.7693804871        4.1278916118       11.5648335595
  C         9.6314165636        5.7570998108        6.4584510450
  H         9.7344167707        2.1420536764        6.6540195172
  C        10.0876795506        3.7089348375        5.4343486041
  H        10.9926213602        4.0271214216       10.2388119466
  H        11.6385610946        3.0417695211        8.9441594981
  C        12.0701213010        2.4287494409       10.9189291572
  C         7.5005788962        6.9289840981       12.3101079124
  C        10.1368967443        5.0628430317        5.2898498247
  H         9.5838719476        6.8227354304        6.3444538052
  C        10.6369121790        3.3063803511        4.2218334719
  H        12.9195963208        3.0894413422       10.8778211012
  H        12.6166661597        1.5235513286       10.7275196584
  C        11.5284132447        2.4764785552       12.3653424971
  C         7.6386557886        8.2784297020       12.6853272787
  C         7.1364005775        6.0348139098       13.4104563263
  C        10.4838390556        5.7061153237        3.9305718641
  C        10.7951312496        4.3689056005        3.3463260695
  S        11.0697908132        1.7054958113        3.5598833051
  H        11.7032782493        3.5296404528       12.7865256963
  H        10.4448352533        2.3619471452       12.2614697423
  C        12.1518746822        1.4436640551       13.2518815611
  N         8.0348028520        9.2512005693       11.8085791061
  C         7.3949040070        8.7800866178       13.9264979922
  C         7.0537219237        6.5137785242       14.7217304233
  H         6.9269108949        5.0059167583       13.2437180503
  C        11.8670882066        6.6031147877        4.0391642778
  C         9.3625555825        6.4836356596        3.2129966200
  C        11.1199691219        3.8961223105        2.0528189988
  C        11.3354261219        2.4934206611        2.0562285954
  H        13.1915014534        1.2765875081       12.9952679020
  H        11.6655965699        0.5147733424       12.8838692246
  C        11.9171055591        1.5661218386       14.7322100475
  S         8.0431295678       10.7142102187       12.5322243456
  N         7.5166077917       10.1940020078       13.9448413984
  C         7.0906981678        7.9826088403       15.0361149917
  H         6.7184228287        5.7960682854       15.4560697259
  H        11.6662059907        7.4653126336        4.6955120632
  H        12.1711772310        7.0565234520        3.0736837232
  C        13.0390988361        5.8449903639        4.7627201572
  H         8.9598533912        7.2884660033        3.8373892354
  H         9.8833560631        6.9157221081        2.3205117809
  C         8.2790567079        5.5613378385        2.6673551340
  H        11.2434551878        4.5708993385        1.2119232735
  C        11.6980006009        1.7193896339        0.7654282019
  H        11.2308762346        2.3841961799       14.8536456538
  H        11.2523897843        0.8123154249       15.1401731287
  C        13.2120558753        1.8370274220       15.4922614457
  C         6.8640079896        8.6004220094       16.2810993003
  H        12.7944785958        5.4826455178        5.7686354204
  H        13.3337611872        5.0279824331        4.1778583760
  C        14.3793708240        6.6588496940        4.8537521181
  H         8.0493167013        4.9081780576        3.5114959533
  H         8.6149047799        4.9118668950        1.9056289579
  C         7.0814799885        6.4198606277        2.2518518810
  C        11.7264322741        0.3142113387        0.5675103323
  C        12.0867950642        2.5584456426       -0.4465073516
  H        13.9516790909        2.0359368099       14.7037004604
  H        13.4513863125        0.9080623489       15.8567343754
  C        13.1888158216        2.8844863905       16.5960637694
  H         7.1481681942        9.6037087613       16.3622113339
  C         6.5397621146        8.1429174896       17.5291300975
  H        14.2793528721        7.4162864221        5.6062461740
  H        14.5492405162        7.1196893916        3.8727316569
  C        15.5424947102        5.6370934058        5.2829487337
  H         6.5485667374        6.6869301867        3.1054634344
  H         7.3072130152        7.3809746090        1.8048437836
  C         6.1868983052        5.6221150011        1.3317572630
  N        11.4936817371       -0.6225013989        1.5614502455
  C        11.9298481804       -0.2697438075       -0.6629502825
  C        12.2687874955        1.9801084175       -1.6758661129
  H        12.2698137369        3.6141343104       -0.3681227403
  H        12.5168675585        3.7424990959       16.3121885537
  H        14.1272021766        3.3851734250       16.8284471960
  H        12.8983013098        2.4505544861       17.5344850674
  S         6.3769619916        6.4976289528       17.9616196548
  C         6.3300468784        9.1003124146       18.6704854550
  H        15.0871394935        4.6726453655        5.7259334319
  H        16.0695331479        5.3350158707        4.3766830495
  C        16.4854295062        6.3808997311        6.2739702649
  H         5.8165516621        4.6735178200        1.6857900208
  H         6.8201080617        5.2957971837        0.4997081955
  C         5.0214838427        6.4354103376        0.7756686950
  S        11.6340126749       -2.1089262010        0.8673066251
  N        12.0341512392       -1.6394965202       -0.6118385724
  C        12.2239881233        0.5414865067       -1.8700205437
  H        12.4714224761        2.5928646900       -2.4844173650
  C         5.8319862657        7.0946294519       19.5949809245
  N         5.8179451971        8.4216496040       19.7449456409
  O         6.1408295930       10.3051711630       18.4720546128
  H        16.6910187180        7.4104771490        5.9587278692
  H        15.9801160577        6.5963194971        7.2037182619
  C        17.6503121481        5.4339563301        6.6384204026
  H         5.2856346849        7.2092408807        0.0905354753
  H         4.3989625080        5.7820261653        0.0935683767
  C         4.0656593366        6.7912868708        1.8849376061
  C        12.5417382833       -0.2253070894       -2.9980881376
  S         5.3888341574        6.0803322574       20.9959282474
  C         5.4050120857        9.1563767237       20.9314532791
  H        17.1966492906        4.7621230963        7.3667061558
  H        17.9459934522        4.9031796096        5.6731425592
  C        18.8424648782        6.1438760560        7.2608130654
  H         4.5249174086        6.7229591845        2.9094798520
  H         3.2335258432        6.0551027643        1.9324397422
  C         3.3396832007        8.0898235128        1.6619263144
  H        12.2971641468       -1.2587062267       -2.8930255300
  C        13.0924025749        0.2063939604       -4.1627374149
  H         4.5792836236        8.6672262518       21.4371562660
  H         4.9694146056       10.0526285582       20.5956848941
  C         6.6147830364        9.2913883344       21.8803917032
  H        19.0275861070        5.6384386277        8.1984747062
  H        18.3354990783        7.0471285589        7.4861360903
  C        20.0454356078        6.3839688677        6.4044227872
  H         3.2011484262        8.3392146879        0.6358314389
  H         2.3173012904        7.9934621213        1.9986458814
  C         4.1448225850        9.2032011937        2.3868612062
  S        13.5572815237        1.7933230360       -4.5982346579
  C        13.2516625141       -0.8429539008       -5.2132318248
  H         7.2172685300        8.3639444433       21.8727248226
  H         6.1613268324        9.3283799563       22.9130087387
  H         7.2414050665       10.1734186467       21.8148205918
  H        20.4285377947        5.4522613780        6.0791205415
  H        19.7922732149        7.0210527742        5.5134276451
  H        20.8163856508        6.9125569664        6.9428306858
  H         4.1194881309        9.0873612994        3.4966230313
  H         5.2101660321        9.0932698658        2.1135187058
  H         3.7596878117       10.1984779423        2.1311981631
  C        13.8458333828        1.0827805406       -6.2297011545
  N        13.8008534511       -0.2440867486       -6.2684383755
  O        13.0696130793       -2.0779926331       -5.0783811500
  S        14.7727419509        1.8882236690       -7.5957409452
  C        14.0215098064       -1.0561264024       -7.4504806104
  H        13.9466361030       -2.1087851510       -7.2448262586
  H        14.9787166586       -0.8372405962       -7.8855857831
  C        12.8285622698       -0.9398227037       -8.5444807675
  H        12.5418232179        0.1438514296       -8.7023259545
  H        11.8789354241       -1.4701824264       -8.2759326250
  H        13.1637127538       -1.4539036309       -9.3722802708
