352
 i =    80000, time =    40000.000, E =       100.4861526003
  H        11.6253531139        6.7848915203       31.9075914326
  C        11.4037254025        5.6919216332       32.1041602375
  H        12.4507077000        5.2366040932       31.8425740732
  C        10.3642056580        5.2181307529       31.1931689684
  C        11.1007548726        5.4253492691       33.6041943585
  C        10.5652226830        5.8542861193       29.7939022950
  H        10.1939662997        4.1352174149       31.0877981861
  H         9.4378413494        5.5321412667       31.6980348936
  H        10.4686137629        6.1826155766       34.0922430839
  H        10.6570407481        4.4799573899       33.7680212465
  H        12.0702441792        5.4024689709       34.1332350243
  C        10.5803916035        4.8099811341       28.6420950478
  H        11.5449759204        6.3062444739       29.7578218776
  H         9.7455054105        6.5840159334       29.7849974030
  C        11.1312095813        5.1975862002       27.3070865810
  H        11.1375128230        3.9075858363       28.9343838770
  H         9.6337713686        4.3985246059       28.5490787746
  C        10.0969854966        4.8689983319       26.1435566115
  H        12.0239028241        4.6532246055       27.0067445486
  H        11.2222837276        6.2965715878       27.3096489311
  C         8.8415111157        5.7842015883       26.0537499813
  H        10.6107538321        4.7243226999       25.1825143659
  H         9.8840540259        3.8099456965       26.4654761539
  C         7.6312576658        5.1722695000       25.3736079248
  H         8.6325068070        6.0566627618       27.0704797561
  H         9.0310793872        6.6638545297       25.4596466936
  C         7.3410685101        3.8492094889       26.0794267301
  C         8.0510410919        4.4442258340       24.1330932654
  C         6.4638406070        6.0650050063       25.1382617289
  C         7.4773587921        2.7516898037       25.2541729714
  C         6.8134416755        3.5496903949       27.3534320294
  C         8.0136439255        3.1131488859       24.0605438311
  C         8.5448896221        5.0433606411       22.9831470445
  H         6.7430280468        6.9102419357       24.4684687407
  H         6.1554795423        6.4311996121       26.1216390540
  C         5.2837909016        5.2571118820       24.5672726393
  S         6.9699406489        1.2905861015       25.9696229869
  C         6.6090767935        2.1636690425       27.4107204652
  H         6.5794785381        4.3716833051       28.0787129487
  C         8.3949781010        2.4405832941       22.9618052280
  H         8.5654477980        6.0662327243       23.1255403097
  C         8.8653360774        4.4294966540       21.8319320170
  H         5.4811223872        4.6180492191       23.7335476795
  H         4.9444318293        4.5650359642       25.3303618789
  C         4.0294495545        6.2111778886       24.3145332029
  C         6.1269964742        1.3726858580       28.5860480146
  C         8.8420478528        3.0520188390       21.7283906061
  H         8.3035273097        1.3761649616       22.9475351589
  C         9.2541317497        4.8502121936       20.5858285633
  H         3.3896108487        5.7910370486       23.5181834729
  H         4.4462655828        7.2220034746       24.0765970874
  C         3.2314185605        6.4460878763       25.5992956576
  C         6.2053167630       -0.0307517681       28.8726352174
  C         5.7470996757        2.2261563926       29.7518862515
  C         9.2562258641        2.3715354717       20.4680338473
  C         9.5044445593        3.7297750409       19.7432819492
  S         9.5195493062        6.2935055267       19.8378251435
  H         2.5997052271        7.3451302366       25.3938673096
  H         3.9472377759        6.6082362507       26.4045558115
  C         2.2385732288        5.3924248389       25.9295629276
  N         6.7474479686       -0.9677294405       27.9792378519
  C         5.8287639500       -0.6056268315       30.0047337496
  C         5.3966915066        1.6376283492       31.0132940349
  H         5.6724843930        3.2969633577       29.7726173720
  C         8.1082811640        1.4612629696       19.8441319701
  C        10.6137224218        1.5282043757       20.6458523633
  C         9.9746513170        4.1287464113       18.4976876281
  C         9.9916024239        5.4705290450       18.4039153131
  H         1.4057567061        5.3964856545       25.1585048566
  H         2.8201824701        4.4869937720       25.7845545782
  C         1.4884867706        5.4400001326       27.2413799499
  S         6.4691472397       -2.4390059503       28.6075226758
  N         6.0139225097       -1.9414821110       30.1023249114
  C         5.4150591659        0.1564247257       31.1533087710
  H         5.1769791890        2.3123961603       31.8265459893
  H         7.8293990820        0.7519687216       20.6067150180
  H         8.5875597819        0.8574693796       19.0964627618
  C         7.0012795918        2.3335718692       19.3973504307
  H        10.7048090628        0.8247339896       19.7998442598
  H        10.4341685234        0.8867046832       21.5608543592
  C        11.9039420899        2.3348245615       20.9070496469
  H        10.0709256848        3.3689278865       17.7191919091
  C        10.2694246710        6.2893780200       17.1700520856
  H         0.9827634570        4.5548865965       27.4930507375
  H         0.6584699249        6.1369804313       27.0299348189
  C         2.3176273721        5.9198258296       28.4599356154
  C         5.2142926367       -0.5588707239       32.3641576079
  H         7.3400294899        3.0436544015       18.6140713277
  H         6.6577541223        3.0076404515       20.1825708077
  C         5.7952771443        1.5974456362       18.9018238069
  H        11.6048635526        3.1035905620       21.6197233347
  H        12.3125447893        2.8675101027       20.0344173041
  C        13.0775267013        1.5428069886       21.5732339295
  C        10.2580825232        7.7392638979       17.0896530003
  C        10.4458047369        5.5226530889       15.8794251876
  H         3.2160230989        5.2747555838       28.6835336357
  H         2.6595751971        6.9008348571       28.3080117001
  C         1.5231686789        6.0465669580       29.7620752412
  H         5.2792927409       -1.6246885974       32.2697696157
  C         5.0194235952       -0.1130141102       33.6241528139
  H         5.2467013286        1.1717697553       19.7261704533
  H         5.9925798659        0.7361535357       18.1349558950
  C         4.7949419833        2.6934354437       18.3737915570
  H        12.8399814448        1.1273284889       22.5567513097
  H        13.3146044812        0.7788653776       20.9476582741
  C        14.3183867390        2.3459200885       21.7539803691
  N        10.0384967435        8.6307791077       18.0961956401
  C        10.3625289820        8.4076081765       15.8683061582
  C        10.6937662658        6.2536959339       14.7042423818
  H        10.5422225848        4.4794800509       15.8638720765
  H         1.2728035503        5.0831129353       30.1785815847
  H         2.0813577965        6.6376324263       30.5036775767
  H         0.6075936080        6.5573633783       29.4840213473
  S         4.7562210999        1.5382643100       34.2009697186
  C         4.9419597540       -1.1280910287       34.6966330530
  H         4.6629245061        3.4103667691       19.2100671162
  H         5.3451516605        3.2274048707       17.5743455438
  C         3.4304376055        2.1187265323       18.0313477619
  H        13.9396938416        3.3728027374       21.8394732015
  H        14.8819687512        2.3888273696       20.8903133994
  C        15.0491824330        2.0668654963       23.0424552935
  S         9.6992232154       10.1079688542       17.4385427489
  N        10.3091508177        9.8330360273       16.0132542719
  C        10.6798887438        7.7308960703       14.6459978516
  H        10.7775808347        5.6847416387       13.7582069264
  C         4.4370540157        0.8067610851       35.7808467332
  N         4.5545729962       -0.5526828943       35.8688508261
  O         5.2237512325       -2.2876008233       34.5410431334
  H         2.7946262893        2.8448565028       17.4394387114
  H         2.8753647758        1.8281746320       18.9542226311
  C         3.4045710264        0.9267402861       17.1264928927
  H        14.3593086567        2.0294631000       23.8772473543
  H        15.5016803019        1.0956817933       23.0441396090
  C        16.0656097062        3.1520329842       23.3301350577
  C        11.2809632064        8.4310946282       13.5697014631
  S         3.9792428501        1.7260647704       37.2798842577
  C         4.4957182584       -1.2345213558       37.1427761085
  H         2.7302618228        1.2536159654       16.3293765308
  H         4.3233573076        0.7004398897       16.5312021313
  C         2.6309232411       -0.2278924853       17.7896783980
  H        16.1678793883        3.1059830953       24.3518807346
  H        15.6210182229        4.1146723022       23.0656990247
  C        17.3378270359        2.7628556614       22.5791835597
  H        11.3479391076        9.5014784017       13.6234585505
  C        11.8047807109        8.1526784325       12.3563672276
  H         3.7239611274       -0.9357237575       37.9313979309
  H         4.1615530856       -2.2294248545       36.8937573024
  C         5.8876786855       -1.1980272705       37.7488996268
  H         2.1769603609       -0.7640756064       16.9820706633
  H         1.7650492371        0.1097728142       18.2946036580
  C         3.2632758339       -1.1709364281       18.8059735411
  H        17.1887276610        2.1278036264       21.7115920254
  H        17.7508197528        3.6959195581       22.2810748361
  C        18.3586060033        1.9745599396       23.3681521305
  S        12.1473858451        6.5265625215       11.6987286890
  C        11.8398442548        9.2404254536       11.3026947741
  H         5.9911838067       -1.9874573984       38.4860303552
  H         6.6212133922       -1.4078707867       36.9872040052
  H         6.1289037566       -0.1731446673       38.1484441430
  H         4.0428953215       -1.8817724607       18.4569623677
  H         2.4287460160       -1.6842523225       19.2785495309
  H         3.7407941523       -0.4791854590       19.4620069884
  H        19.3254805398        2.1509416820       22.9794142061
  H        18.2369301308        0.9286371274       23.4114748925
  H        18.2894853855        2.3066900155       24.4000124721
  C        12.5002988537        7.3529187870       10.1975604758
  N        12.3673783040        8.6949425266       10.2161291228
  O        11.3794307188       10.3864597698       11.4535045895
  S        13.2190815149        6.3909645513        8.8431727464
  C        12.4719057074        9.4847155421        8.9686270855
  H        12.6951408095       10.5341365855        9.1725972412
  H        13.3524407131        9.0862925241        8.4187899768
  C        11.2052922007        9.3400638434        8.1410206121
  H        10.2981253280        9.4073597013        8.7111529669
  H        11.0964357542       10.2126010617        7.4421235398
  H        11.2757503263        8.5083624885        7.4875314856
  H         2.7159348271        1.4822865398       12.9469088928
  C         3.4653299563        1.7356823520       12.2919277040
  H         4.0604254830        0.8602464219       12.0719707300
  C         2.9531127300        2.3868885203       10.9965684622
  C         4.1938902001        2.6783996516       13.2643277632
  C         4.0383860030        2.6524017142        9.9711694461
  H         2.2569205696        3.2744376608       11.1778995447
  H         2.2968829642        1.6412748203       10.4644067486
  H         5.0147423832        2.2095925034       13.8420195402
  H         3.4219858870        3.0338745069       13.9459434553
  H         4.6265317160        3.5371855583       12.7456221077
  C         4.8761040909        1.5367284846        9.4435589972
  H         3.5661275853        3.1620631722        9.1426624032
  H         4.6923639431        3.4170578771       10.4015703338
  C         5.7433386004        1.9409059641        8.3486616881
  H         4.2253065711        0.7385242149        9.0519162380
  H         5.5127599061        1.1335078442       10.2036198022
  C         6.9569800035        2.7524937114        8.8095367835
  H         5.2360193170        2.5416926788        7.6120556765
  H         6.1168548331        1.1035855134        7.7379734697
  C         8.1447950468        2.0061148825        9.3336224183
  H         7.2684069847        3.4891732036        8.0454101717
  H         6.6335298851        3.3836629100        9.6368034293
  C         9.3901382301        2.8983859455        9.4265129009
  H         8.3466843816        1.0493488466        8.8124657437
  H         7.8554178358        1.6453785399       10.3407740320
  C         9.0876908596        4.2390890887       10.1178037859
  C         9.7308971903        3.5755050981        8.1315013148
  C        10.6298510305        2.1530382224       10.0119507334
  C         9.2467453158        5.3327665554        9.2974416548
  C         8.6056944348        4.6000740542       11.3572952502
  C         9.7511009733        4.9034259286        8.0656997820
  C        10.0210153728        2.9622811358        6.9370361481
  H        10.1907382879        1.3443482111       10.7305659306
  H        11.0518245258        1.5280012847        9.1955078722
  C        11.6561255562        3.1747115039       10.5208676380
  S         8.8522316575        6.8491678762       10.0535453847
  C         8.4629189204        5.9574645930       11.4684878826
  H         8.3443769736        3.8012431072       12.0462997710
  C        10.0453465016        5.5716247297        6.8813964673
  H         9.9414403564        1.8856415378        6.9789462831
  C        10.3831125312        3.5697980901        5.7949392127
  H        11.2720712887        3.8791373700       11.2136305366
  H        12.0779059646        3.7243088407        9.6787442285
  C        12.8114664390        2.5234490854       11.1572303490
  C         7.8834044171        6.5646421659       12.6790482045
  C        10.3528884385        4.9191756830        5.6838283749
  H        10.0345957482        6.6289977507        6.9522160160
  C        10.8372297563        3.1185366512        4.5898722579
  H        13.5903553014        3.3016732328       11.4280093004
  H        13.3467721850        1.8075945267       10.5227741274
  C        12.5789698797        1.7950447109       12.5273961868
  C         7.8831429554        7.9321983490       12.9658391068
  C         7.2863336140        5.6819540886       13.7523415699
  C        10.6873884266        5.5220029058        4.3463548679
  C        10.9597703906        4.1177689718        3.6677968139
  S        11.1000478621        1.5659877542        3.8557584214
  H        11.7612740894        1.0801104835       12.5266440715
  H        13.4398344242        1.1940889843       12.8183204423
  C        12.3474065045        2.7762516865       13.6740306767
  N         8.3726906945        8.9461734465       12.1166435245
  C         7.3999502961        8.4013091801       14.1188203410
  C         6.8826357222        6.2248696047       15.0160218142
  H         7.1855793598        4.6025995437       13.6510528435
  C        11.9689945984        6.3478994853        4.5501005361
  C         9.4501081195        6.2508987579        3.8886929288
  C        11.2224185789        3.7236281254        2.3326908104
  C        11.4228089148        2.3854515639        2.2987776870
  H        11.4891896709        3.3840000940       13.5157075246
  H        13.2019633088        3.4013375193       13.7177825289
  C        12.1459368502        2.0516156898       15.0511719713
  S         8.4134489798       10.2854040731       12.9336445524
  N         7.5917022580        9.6994973061       14.2553058711
  C         7.0223499717        7.6972370668       15.2644383079
  H         6.4532419022        5.5545693152       15.7963976270
  H        11.7212759116        7.2467956671        5.1187883978
  H        12.2707491999        6.5802939649        3.5529006439
  C        13.2120568673        5.5097049523        4.9442962869
  H         9.1496177314        6.9992124678        4.6237524348
  H         9.7894314449        6.9019444409        3.0343724151
  C         8.1760107091        5.4235505873        3.3892831252
  H        11.3039822709        4.5351809771        1.6434112451
  C        11.8925981286        1.7171702698        1.0468320629
  H        11.2344103959        2.4433138532       15.4837502916
  H        11.8542923908        1.0157297837       14.9276465541
  C        13.3649252644        2.1700047687       16.0213078689
  C         6.7320554090        8.4459059926       16.4474595891
  H        12.9447690318        5.0065960252        5.8971643200
  H        13.5391749304        4.7281716242        4.2433595601
  C        14.4749645499        6.3884172327        5.2648690385
  H         7.2642122797        5.7431442059        3.8563114382
  H         8.2253290267        4.3676383014        3.6839990520
  C         7.9750475371        5.5589545490        1.8236433180
  C        12.1408352675        0.3635767598        0.7890491693
  C        12.0682894760        2.5357401297       -0.1727962868
  H        13.6162230030        3.1438118735       16.2272469169
  H        14.2942765149        1.7408567832       15.6017702982
  C        13.0022884137        1.6007152386       17.3826544759
  H         6.5413019927        9.5548639515       16.3459588785
  C         6.5562814208        8.0574370930       17.7686527113
  H        14.1814876962        7.0934434798        6.0289171965
  H        14.7012557873        7.0254541635        4.4359775845
  C        15.6799104618        5.5713982755        5.7429174191
  H         8.2708710691        6.5267478307        1.3660538469
  H         8.6160225933        4.7854551101        1.4286723964
  C         6.5511288754        5.2395171946        1.3508430641
  N        11.6426737347       -0.5730343923        1.7013280218
  C        12.3307508886       -0.2270612620       -0.4455255805
  C        12.2332869268        1.9758570535       -1.4554600284
  H        12.0435095610        3.5570479361       -0.0794124813
  H        13.6863131625        1.9441285997       18.1892826665
  H        13.1158802628        0.5334588828       17.1993552000
  H        12.0319076748        1.8601093197       17.7353275344
  S         6.4941208465        6.3928121918       18.3241536039
  C         6.3267605412        9.1332179942       18.7066954243
  H        15.3351020009        4.6783998892        6.3842437056
  H        16.2362126694        5.2187273691        4.9534703848
  C        16.6414476360        6.4963112962        6.6070663605
  H         6.2418380873        4.2840859854        1.7960136375
  H         6.4817565332        5.1452339971        0.3105485741
  C         5.5402901548        6.2808423094        1.8977768648
  S        11.6937928122       -2.0703098821        1.0790074384
  N        12.3608716538       -1.6075351096       -0.3946597734
  C        12.5726813543        0.5425608623       -1.6309981950
  H        12.3694946361        2.6932985928       -2.3023125715
  C         6.2846044579        7.1916111058       19.9077227794
  N         6.1391161356        8.5578868911       19.8940713689
  O         6.2908261800       10.3155954790       18.4214244473
  H        16.9117395825        7.3468042724        5.9365078080
  H        15.9352489974        7.0042754943        7.3654509449
  C        17.9746282490        5.8712322038        7.2133907704
  H         4.5421356382        5.8811059233        1.6270421361
  H         5.5533407738        6.4100054901        2.9673249917
  C         5.5926946342        7.7193383853        1.3587310419
  C        12.9307264458       -0.1639209335       -2.8423443410
  S         5.9630611153        6.3343670481       21.4375192646
  C         5.8203038225        9.3702213003       21.0911498005
  H        18.1240422239        6.1587443938        8.2706964775
  H        17.5931414973        4.8775442036        7.2277157169
  C        19.1880875842        6.0899886560        6.3738625875
  H         6.0591237985        7.6360122136        0.4070146985
  H         6.1563717456        8.3131555840        2.0383871639
  C         4.3105717081        8.4663520042        1.1450169421
  H        12.8885795404       -1.2232939811       -2.6690435200
  C        13.3164399282        0.2982025572       -4.0959643812
  H         5.1332840089        8.7727232641       21.7019655940
  H         5.3178214795       10.2744811767       20.9338636002
  C         7.1362801025        9.6306326712       21.8047620557
  H        19.9850356406        6.2934158621        7.0000862274
  H        19.0656926142        6.9470848953        5.6920062852
  C        19.6512295812        4.8384256249        5.5576020273
  H         3.6931532418        8.0354658094        0.3576832876
  H         3.6636964722        8.2391750593        1.9102063954
  C         4.4284301928        9.9850877660        0.9939346494
  S        13.5958175235        1.9068345104       -4.4829281392
  C        13.6277417687       -0.6711367531       -5.1377183094
  H         7.1317117669       10.5507859449       22.4657555698
  H         7.8749101519        9.6244588560       20.9658240961
  H         7.2913089681        8.8081304841       22.5062328038
  H        20.7709201512        4.6396232595        5.5788055726
  H        19.1748204453        3.9594486361        5.9994471756
  H        19.4203940964        4.9760400888        4.4704624873
  H         5.3095702437       10.1882844707        0.3230118408
  H         3.5137047566       10.2963950670        0.5593955929
  H         4.4864919753       10.4457983486        2.0028706457
  C        14.0839058319        1.3351440557       -6.0524515615
  N        14.1436963701       -0.0434609202       -6.2046900461
  O        13.4659508691       -1.8738776149       -4.9886585186
  S        14.7045603370        2.3000127274       -7.3677992116
  C        14.4613861158       -0.8123826707       -7.4579793337
  H        14.6416049854       -1.8840645773       -7.4046139352
  H        15.3695811465       -0.5514693148       -7.8954561066
  C        13.1829521599       -0.7888951355       -8.3758607740
  H        12.2869631980       -1.1546688824       -7.8631635477
  H        13.2596590285       -1.4273309093       -9.2530503139
  H        12.9401705440        0.2604292421       -8.6692304513
