352
 i =   123600, time =    61800.000, E =        97.8534448893
  H         9.2547824180        5.9044939299       32.1125293874
  C        10.2979307375        6.1584876040       32.2290040626
  H        10.1593275049        7.1767633412       32.6003818775
  C        11.2378336528        6.2129843387       30.9463296839
  C        10.6514145317        5.1333621044       33.3138323774
  C        10.8432068631        5.1834322236       29.8372678095
  H        11.2434731347        7.2146573654       30.4286528934
  H        12.2348627094        5.8631446637       31.2725579610
  H        10.7051338112        5.5834965668       34.3033354407
  H         9.9567982628        4.2923922557       33.2599528746
  H        11.5820067395        4.6274690330       33.0512594633
  C        11.5231030527        5.5320641852       28.4529346974
  H         9.7378429538        5.3061418862       29.7375521544
  H        11.0041247300        4.0765964309       30.0771199265
  C        10.4914599494        6.1716263081       27.5227702928
  H        12.4852529929        6.0034277530       28.5822239047
  H        11.7662477006        4.6157471512       27.9876103288
  C         9.5099697639        5.1750097450       26.9514402980
  H        11.0512696491        6.5554378314       26.7323575101
  H        10.0663235594        6.9296001914       28.1938234023
  C         8.3936279826        6.0326330295       26.3449716691
  H        10.0030137729        4.6009353808       26.1451693044
  H         9.2167953891        4.3730951780       27.5955203407
  C         7.2369398393        5.2556324120       25.7263826372
  H         8.0531103078        6.7179927878       27.0982273926
  H         8.8482627171        6.6857235821       25.5312331195
  C         6.9823030290        3.9454465631       26.4562798785
  C         7.6243596606        4.5537214726       24.4755055550
  C         5.9445939151        6.1107453157       25.6294136089
  C         7.2961542575        2.8765673469       25.6406755719
  C         6.4580231206        3.4682581725       27.7231084075
  C         7.6648703550        3.2230598663       24.3672432275
  C         8.0326338456        5.1776516326       23.2972639759
  H         6.1107396328        6.7375166670       24.7455852952
  H         5.6547002019        6.6229715622       26.4975805667
  C         4.6877563169        5.3804407228       25.3010935521
  S         6.9518329818        1.3357170523       26.3203134365
  C         6.3761030504        2.1103028252       27.7826469224
  H         6.1386684144        4.1941801607       28.5418402787
  C         8.0221267297        2.6179632574       23.1977536664
  H         7.9922129420        6.2469825803       23.4154688623
  C         8.4721756553        4.6214176056       22.1169263433
  H         4.7519290600        4.7881405424       24.3955498358
  H         4.4637968657        4.7153956223       26.1135730100
  C         3.4437730576        6.2157921067       25.1244957720
  C         5.9238292531        1.3240789537       28.9867511187
  C         8.4211765146        3.2304939871       21.9700939661
  H         7.9607651815        1.5805942924       23.1162121668
  C         8.8908757724        5.0145640903       20.8400570830
  H         2.7394605952        5.6483957649       24.5627709451
  H         3.6504072526        7.0363001958       24.3783497103
  C         2.4899864690        6.5794528890       26.3393418793
  C         5.9402490192       -0.1284537791       29.1181545712
  C         5.4458936464        2.0978051831       30.1633339878
  C         8.7346913528        2.5788362983       20.6835148525
  C         9.1448258193        3.9386884705       20.0526221996
  S         9.1260769391        6.5464453263       20.1443183252
  H         1.7671079303        7.3911338544       26.1963150962
  H         3.0898496685        6.9028049536       27.1219657943
  C         1.8324445264        5.2931021098       26.9937011077
  N         6.2349609906       -0.9993030708       28.1039525555
  C         5.6244807078       -0.6975251794       30.3118614150
  C         5.1137801556        1.4324648981       31.3453846903
  H         5.3035979013        3.1573767330       30.1222169078
  C         7.5166755953        1.8100382231       20.0094745029
  C         9.9811269942        1.7166388360       21.0034212314
  C         9.7928241618        4.3804055115       18.8948536409
  C         9.7166379521        5.7506049357       18.7336619030
  H         1.1339081688        4.9522349042       26.2371730557
  H         2.6299874095        4.5942649410       27.1820180310
  C         0.9435074133        5.5091402426       28.1629181832
  S         6.1644686624       -2.5178325560       28.7506533561
  N         5.9232694880       -2.0753572397       30.3044203424
  C         5.2311039291       -0.0111269117       31.5207096223
  H         4.6560390201        2.1376121737       32.1326853593
  H         6.7931531752        1.5253368459       20.7836493157
  H         7.8032737792        1.0241595755       19.3222814712
  C         6.5491774632        2.7185289169       19.1793109799
  H        10.2999658806        1.3474395976       20.0377511915
  H         9.8483891217        0.8768526492       21.6693696562
  C        11.1701408194        2.5666257230       21.4718182307
  H        10.1520887998        3.6701112556       18.1993385212
  C        10.0886262945        6.4472714718       17.5355451121
  H         0.3126456576        4.6062264309       28.3333226869
  H         0.2289583389        6.2714165162       27.7844066390
  C         1.5463575778        5.9659454874       29.5080149580
  C         5.0441627354       -0.7098706592       32.7517670762
  H         7.1017735808        3.2222081311       18.4700998494
  H         6.1136615430        3.4544446424       19.8623705546
  C         5.3780178220        1.9494262404       18.4892406635
  H        10.9940327994        3.0267142653       22.4388510803
  H        11.5277578011        3.4101773261       20.8090951734
  C        12.4424075257        1.7595438531       21.9056451521
  C        10.1085676171        7.8613901919       17.2901185987
  C        10.5375796380        5.5953735073       16.3223199426
  H         1.6209277879        7.0577821661       29.5809447766
  H         0.7553918087        5.6973560282       30.1536151099
  C         2.8628106719        5.4347810644       30.0181814008
  H         5.2243086330       -1.7260438594       32.5786823098
  C         4.7947917622       -0.2063633863       34.0372120627
  H         4.6991255149        1.3878284190       19.1529640943
  H         5.9740516875        1.2220735191       17.8502357537
  C         4.4070431321        2.7901147912       17.7859675480
  H        12.2064810207        0.9996845364       22.6999145044
  H        12.6805953579        1.0617014358       21.1298123931
  C        13.5821206344        2.6870000868       22.3423734065
  N         9.7500354739        8.7929262822       18.2655991585
  C        10.3759838282        8.3759212659       16.0236468795
  C        10.8154176055        6.1258346872       15.0801418106
  H        10.5356590057        4.5470551240       16.4679565232
  H         3.1111220968        5.6568027875       31.0271380596
  H         2.8415489160        4.3244801140       29.9760237264
  H         3.7718753002        5.7631195861       29.5570516174
  S         4.3603418016        1.4154282483       34.4953344305
  C         4.7659621655       -1.1713685154       35.1535436924
  H         4.6190832869        3.8239963007       18.0076504138
  H         4.5125536181        2.8769043573       16.7099872095
  C         2.9750493654        2.4879157538       18.0236263724
  H        13.3338517200        3.1992174693       23.2579702274
  H        13.8148382403        3.3924404657       21.5804355808
  C        14.9089289456        2.0303183644       22.6583656543
  S         9.9773577273       10.2195429953       17.5076471581
  N        10.4127852581        9.7658431761       16.0012211956
  C        10.6443705445        7.6210927312       14.8892810551
  H        11.1212396218        5.4522660046       14.3224420817
  C         4.1706575446        0.6945590598       36.0958352392
  N         4.3286624245       -0.6131600963       36.2795687462
  O         5.0024879076       -2.3824563180       34.9982146284
  H         2.3131409878        3.3094909401       17.5726926294
  H         2.7951525982        2.5334420111       19.0897126295
  C         2.4547501293        1.2057168745       17.4077117610
  H        14.8266719789        1.5727517560       23.6263763810
  H        15.0456202742        1.2374373086       21.8990978277
  C        16.1278619389        3.0200939381       22.6728806365
  C        10.9016804895        8.2965123109       13.6491757834
  S         3.8272604622        1.6395643887       37.4889323060
  C         4.2987082382       -1.3388959101       37.5325092452
  H         1.6371832973        1.5112004116       16.7690913669
  H         3.2832745446        0.7344137980       16.8148563436
  C         1.8918424601        0.2448976820       18.5188322038
  H        15.9160069561        3.9455672829       23.2696798118
  H        16.3620889092        3.2444891802       21.6626427739
  C        17.4062797478        2.3204861964       23.1009001498
  H        10.6971031788        9.3427129944       13.5708203920
  C        11.5487962568        7.8037037435       12.4910513404
  H         3.6748162604       -0.8071950782       38.2047332442
  H         3.9943183451       -2.3809891274       37.4825471939
  C         5.7242428171       -1.2962978355       38.1327245934
  H         0.7760929067        0.3621042918       18.5488596997
  H         2.2877945215        0.5355450051       19.5216145029
  C         2.2321116042       -1.2250717966       18.3368925682
  H        17.6337206635        1.3317861490       22.6137024916
  H        18.2390598123        2.9674375040       22.8393600892
  C        17.4285078952        2.0298811271       24.5733467095
  S        12.0534820853        6.2138281257       12.1283457510
  C        11.8040520837        8.8023475221       11.3471599993
  H         5.8000380662       -1.3725290620       39.2239597685
  H         6.3300096709       -2.0040996342       37.6131200504
  H         6.2332899166       -0.3782287133       37.8978754059
  H         3.2555874547       -1.4914005942       17.9527464137
  H         1.5784890084       -1.5563647181       17.5056056085
  H         2.1111818835       -1.7455708373       19.2904035582
  H        16.9975834351        1.0650376075       24.8340587351
  H        16.7946251534        2.7878377765       25.0286573790
  H        18.3987291097        2.0848744556       24.9443692769
  C        12.5868188672        6.7921122824       10.5461460568
  N        12.4913113467        8.1374710931       10.3763486457
  O        11.4113214646        9.9819216934       11.3627452621
  S        13.2597672256        5.7716957230        9.2225918297
  C        12.8680985473        8.8774878602        9.1735437067
  H        13.0581028553        9.9493940975        9.4346577020
  H        13.7696979451        8.4379897670        8.5969708321
  C        11.6431771380        8.8997084768        8.2969217761
  H        10.8749521241        9.4498953300        8.7803434928
  H        11.7954226796        9.4840227852        7.3614491041
  H        11.3436479890        7.8617442142        8.0885642392
  H         2.7173881699        3.5981908842       12.2718088789
  C         2.8257907320        2.5028449121       12.2587752358
  H         1.9730646535        2.0929034424       12.7092637271
  C         2.9039541384        1.9901390568       10.8292262695
  C         4.0569268817        2.1435967355       13.1843912920
  C         3.9956301795        2.4218450982        9.8451099681
  H         2.0345045557        2.2943663602       10.3518776305
  H         2.9894042327        0.8870887653       10.9079402420
  H         4.9574096104        2.2720175959       12.6285858755
  H         4.0169961395        1.1913986715       13.4783970948
  H         3.9885876851        2.6093624175       14.1590184787
  C         4.8075538774        1.2324888448        9.3562628550
  H         3.3888470264        2.8380617185        8.9974221198
  H         4.6480246170        3.1763341783       10.4303595338
  C         5.6196052188        1.5130359708        8.0923796317
  H         4.1695834813        0.4088847811        8.9633144828
  H         5.4194393497        0.8203647819       10.1913995109
  C         6.8217029552        2.3466923078        8.4690979298
  H         4.9718014337        1.9436934383        7.4256216418
  H         5.9490875154        0.5514066852        7.6893908829
  C         8.0305723013        1.6422146934        9.1702288912
  H         7.2601640227        2.7738544714        7.5138437853
  H         6.4814853340        3.2324209051        9.0176063935
  C         9.3025158674        2.6314700832        9.3558183529
  H         8.2819914563        0.8290574503        8.4416687695
  H         7.7152705874        1.1674220421       10.1048528437
  C         8.9728959687        3.9103776419       10.0236715950
  C         9.7633424187        3.3415594134        8.0600708920
  C        10.4507952338        1.8364859601       10.0962076481
  C         9.2021194259        4.9816177820        9.2023963342
  C         8.4140582138        4.2729901400       11.2585007875
  C         9.6927485830        4.6312288615        7.9636882383
  C        10.1949873566        2.7943216278        6.8514870056
  H         9.9695371299        1.5042763542       10.9774507986
  H        10.7464583910        1.0093496653        9.4173650402
  C        11.7143008520        2.6392545175       10.3069322835
  S         8.7484428179        6.4836178610        9.9399119109
  C         8.2684123346        5.6592560069       11.3815819034
  H         8.2640488853        3.4581449129       11.9359558510
  C        10.0025222346        5.3275602678        6.8466056142
  H        10.2835894437        1.7608118532        6.8436072324
  C        10.5242364372        3.4695793634        5.7393523372
  H        11.4194731261        3.6434475323       10.6243222725
  H        12.2981000432        2.8106315815        9.3843830373
  C        12.5111808112        2.0584680992       11.4972060939
  C         7.8445287081        6.4157772364       12.5948539899
  C        10.4670464732        4.8044931151        5.6461692306
  H         9.8671489257        6.4273089014        6.7878805569
  C        10.9809195247        3.0889141742        4.5410700707
  H        13.3684453228        2.7715717141       11.5807427068
  H        12.8707050705        1.0943035547       11.2160719756
  C        11.8904413739        1.9951314379       12.9351182492
  C         7.7926661411        7.8209719262       12.8082275845
  C         7.5691015743        5.6399447666       13.7892360953
  C        10.9740517176        5.5186764816        4.4385766980
  C        11.2469801378        4.1829952856        3.7557194262
  S        11.2442692874        1.5923410565        3.7449963191
  H        11.1033396832        2.6524692472       13.1026659365
  H        11.4814135973        1.0669694595       12.9030168116
  C        12.8975644931        2.0770970718       14.0318808472
  N         8.0549006499        8.7530789965       11.7877701587
  C         7.5089508994        8.4756108685       14.0194887370
  C         7.2687967088        6.2729201242       15.0146823584
  H         7.6151097329        4.5236291052       13.8556295373
  C        12.2587927859        6.2813333454        4.8237676712
  C         9.8720534624        6.2073501942        3.6610585969
  C        11.7238317075        3.7729479618        2.4743865471
  C        11.6687193989        2.4060324604        2.2840469063
  H        13.8154579101        2.5270208236       13.6711910714
  H        13.3486666307        1.0590840780       14.0889167557
  C        12.3613342076        2.4899146339       15.4114704312
  S         7.9325108253       10.2284737919       12.3844523300
  N         7.5293359768        9.8690039690       13.9235907384
  C         7.2439213208        7.7560416191       15.1826226114
  H         7.2852370522        5.6066060323       15.8546301699
  H        12.0483126935        7.0129599724        5.6636398493
  H        12.5370895639        6.8970940114        3.9891294047
  C        13.4600197317        5.4663170348        5.2761830385
  H         9.3127793844        6.7887597669        4.4102346442
  H        10.3377108416        6.9931167879        3.0786997111
  C         8.9149109290        5.3896010104        2.8459434445
  H        12.0304018087        4.5944969054        1.8181689936
  C        11.9261652913        1.6337441269        1.0472350613
  H        12.2254146608        3.5886905964       15.4602837759
  H        11.4201102054        1.9361785460       15.3689793986
  C        13.2304530214        1.9944801638       16.5602747470
  C         7.0505575209        8.4024752065       16.4017332539
  H        13.2720726628        4.6277108132        5.9234363297
  H        13.9449140533        4.9743492044        4.3637299994
  C        14.4711400688        6.3818110007        6.0374531895
  H         8.6138693783        4.5038355655        3.3858866030
  H         9.4184947742        5.0620686222        1.9276162976
  C         7.5329064028        6.0694763656        2.4957665818
  C        11.8478481558        0.2453508218        0.8037917258
  C        12.2290114903        2.3403988708       -0.1819871536
  H        14.2211221845        2.3211597203       16.4432276231
  H        13.2673889587        0.9714370730       16.5635926802
  C        12.8285457526        2.4647932314       17.9552161051
  H         7.3495207753        9.4671615524       16.4110039120
  C         6.5731657740        8.0081619770       17.6126741612
  H        14.0488473433        6.9006450291        6.9296798807
  H        14.8826993990        7.1199853511        5.3195910911
  C        15.5985239928        5.4842396353        6.5233320631
  H         7.1853568766        6.5676035585        3.3309040491
  H         7.6635733140        6.7085920688        1.5943542819
  C         6.4234635082        5.0487655971        2.2316693604
  N        11.5804604865       -0.6871808031        1.8507260164
  C        12.0131837987       -0.4146821487       -0.3628088592
  C        12.3844099116        1.7562344336       -1.4185964840
  H        12.5218263053        3.4086419795       -0.0924903074
  H        11.9963054095        1.9056868188       18.2504331928
  H        12.5902073257        3.5564058128       17.9002820272
  H        13.6282823459        2.2368307973       18.6539592093
  S         5.8799498817        6.5092120201       18.0045059337
  C         6.5438513319        8.9769604656       18.7435390326
  H        15.3910037289        4.8307988920        7.3338515135
  H        15.9736463555        4.8766408763        5.7599418840
  C        16.7622640940        6.3373846181        6.9746641633
  H         5.8495895631        4.8246220208        3.1932840174
  H         6.6943139637        4.0217864651        1.9148472924
  C         5.4729518749        5.6021563904        1.1482188561
  S        11.7142710338       -2.1549104335        1.2972966951
  N        11.8281462964       -1.8327095088       -0.2662187812
  C        12.2462500050        0.3052781390       -1.5492611526
  H        12.7344868646        2.3509810717       -2.2516758852
  C         5.6792065948        7.0459471948       19.6382193304
  N         5.8956782686        8.3833651645       19.7862708173
  O         6.8362613822       10.2172328492       18.6918216882
  H        17.1955558473        6.8365304358        6.0850603782
  H        16.4396122724        7.0887292190        7.7011200318
  C        17.8643626375        5.5251590663        7.6672270509
  H         5.8410212804        5.5420530763        0.1175129620
  H         4.7377653058        4.7673430212        1.1557816349
  C         4.7256580605        6.8933802683        1.4059976295
  C        12.4893852370       -0.5346502647       -2.6794421428
  S         5.4641257426        6.1568361349       21.0915785588
  C         5.7010651010        9.2256315555       21.0040390657
  H        17.6441358407        5.3760334437        8.7162616359
  H        17.8941445591        4.5823864451        7.1784632262
  C        19.2025536279        6.2917588406        7.5021532906
  H         4.5318354561        6.8992198399        2.4704044690
  H         3.6662490270        6.7425631605        0.9875768784
  C         5.2088835282        8.1964947241        0.9852656914
  H        11.9790951167       -1.5402632801       -2.6614321579
  C        13.0110698203       -0.2136801739       -3.9237905370
  H         4.8621420098        8.8208387160       21.6771395177
  H         5.3858711670       10.2006184578       20.6806436877
  C         7.0295038218        9.2612953804       21.8449405501
  H        19.9205964065        6.0608297708        8.3600298640
  H        19.0716175397        7.3655160513        7.5145120277
  C        19.9345521387        5.8320149503        6.3325093864
  H         6.1931100287        8.3078362650        1.5042759970
  H         5.4549482304        8.2147214953       -0.1182870947
  C         4.1298196821        9.2776828994        1.4396455535
  S        13.6172465203        1.3111401301       -4.3819524347
  C        13.1238807952       -1.2959710341       -4.9627673855
  H         7.8329731254        9.4574034193       21.1141238457
  H         7.1678323317        8.3422215383       22.3857207227
  H         7.0674293396       10.1544202397       22.4205721394
  H        19.4136034977        5.9765058971        5.4032116786
  H        20.7330666224        6.5467517718        6.2600672213
  H        20.2882115153        4.8289512950        6.3427883166
  H         4.3116289425        9.6754991083        2.4672012061
  H         4.2092482352       10.0748420530        0.7724887682
  H         3.1421187288        8.8674781455        1.3113453513
  C        13.5946473365        0.6793736152       -6.0453217647
  N        13.5502382337       -0.6962588534       -6.0857999741
  O        12.9151054157       -2.4757021941       -4.7578566940
  S        14.2077310572        1.3659887032       -7.5734735205
  C        13.6568769905       -1.5791995402       -7.2502759492
  H        14.0773721193       -2.5144251682       -6.8992985441
  H        14.3643274246       -1.2051150966       -7.9690724032
  C        12.3676572093       -1.8611803224       -7.9909887991
  H        12.4500609420       -2.8767799530       -8.3882232162
  H        12.2090448918       -1.1855687689       -8.8436841269
  H        11.4643561937       -1.6742105241       -7.3889605040
