352
 i =    61300, time =    30650.000, E =        98.2687162249
  H        12.2227829844        5.3941467186       32.2338388320
  C        11.1743381018        5.3161202139       32.1195185656
  H        11.0271576141        4.2648660730       31.8246214415
  C        10.6508903120        6.3348062696       31.0904562413
  C        10.3679558410        5.5501419585       33.4913916980
  C        11.1990244184        5.9655422138       29.6832914329
  H         9.6005403326        6.5288068913       31.0173784280
  H        11.0321967588        7.2305898531       31.4947842450
  H         9.8611911040        4.6001334141       33.8242839551
  H        11.0885756327        5.7913644313       34.2690901309
  H         9.5750016331        6.2477365379       33.4093490828
  C        10.0696946926        5.7555504605       28.6861556881
  H        11.7876725049        4.9802707594       29.7040909621
  H        11.9105907521        6.6942168989       29.2838030245
  C        10.4639404580        5.4471444123       27.2239581858
  H         9.5142928437        4.8468805958       29.0322673511
  H         9.3739212580        6.6211700920       28.7948267870
  C         9.3135702577        4.6721706527       26.5655741521
  H        11.3473292976        4.8665975423       27.0897808252
  H        10.6360370606        6.3978208261       26.7204082644
  C         8.1951210751        5.5887448950       26.0999073437
  H         9.5303384681        4.2225709889       25.6494191284
  H         9.0453082626        3.8536642178       27.2354305780
  C         7.0458370256        4.8540261709       25.2986949359
  H         7.7308947222        6.0586235231       26.9543030948
  H         8.6545075385        6.4035120588       25.5255256161
  C         6.7438189045        3.5048683076       25.9982478646
  C         7.4371710594        4.1841991758       24.0213120971
  C         5.6953397810        5.6367150635       25.2452729824
  C         6.8728207322        2.4469295213       25.1402037948
  C         6.3234696178        3.2265926204       27.3226599407
  C         7.3177432102        2.8250930530       23.9202029303
  C         7.9063157013        4.8372770980       22.9076781549
  H         5.7818145460        6.5083130635       24.5970063629
  H         5.5594694594        6.1210629567       26.1907946598
  C         4.4668795772        4.8349452975       24.7123507107
  S         6.5422346705        1.0302244941       25.9481975635
  C         6.1550798377        1.8567025126       27.4461608342
  H         6.1754654925        4.0949868276       27.9069599449
  C         7.7465522011        2.2346171829       22.7407214005
  H         8.0086596334        5.8619502044       22.9860163680
  C         8.2984697357        4.2599393379       21.7189501369
  H         4.8208088896        4.5768888030       23.7133027453
  H         4.2333486267        3.9726373366       25.3260059296
  C         3.1932410436        5.6926144782       24.6167419701
  C         5.6610994732        1.2319393585       28.6812631281
  C         8.1725679893        2.8937992527       21.5503200083
  H         7.7895923589        1.1431708777       22.7150908251
  C         8.8243790409        4.6527454139       20.5395476097
  H         2.5503048731        5.4609290092       23.7373287235
  H         3.4557506073        6.7165732472       24.2626498656
  C         2.4652771295        5.7536873619       25.8957090079
  C         5.7908932775       -0.1592975318       28.9589893425
  C         5.1704830808        2.1154952694       29.7546913706
  C         8.6690439695        2.2182666896       20.3361377072
  C         9.0692801420        3.5561733735       19.7617161056
  S         9.1297543592        6.1573447186       19.7588381760
  H         1.6766513702        6.4941862923       25.8815212547
  H         3.1364271435        6.0495804434       26.6341298256
  C         1.7351892398        4.4432157652       26.4052994905
  N         6.2308248110       -1.1592941912       28.0314965096
  C         5.5634240664       -0.7105825119       30.2404057720
  C         4.8153743365        1.5087670882       30.9540060205
  H         5.0024568691        3.1437006808       29.6309699501
  C         7.5264598435        1.6654681354       19.4739115256
  C         9.9508475000        1.3556516995       20.4557080674
  C         9.6931059472        3.9136308137       18.5682887822
  C         9.7002536048        5.2757247491       18.3644920574
  H         1.0205424435        4.1242374027       25.6436333120
  H         2.4646186893        3.6937209850       26.7114728472
  C         0.8824462303        4.7767686302       27.7750923832
  S         6.1126907273       -2.6083577620       28.8253747914
  N         5.7076483717       -2.0715922577       30.2947773802
  C         5.1150993824        0.0940908212       31.2848249678
  H         4.4808927122        2.2338441048       31.6685375053
  H         6.9766660375        1.0408688211       20.2230141588
  H         7.9028494759        1.0198741787       18.7139828936
  C         6.5607087396        2.6127186049       18.7779399839
  H        10.3991859599        1.2336172348       19.4329254714
  H         9.6490653113        0.3809400928       20.8723057451
  C        11.0060174519        2.1074576487       21.2575015349
  H         9.9326002647        3.1819877586       17.8494257814
  C         9.9937380026        6.0590859974       17.1525448296
  H         0.1671801892        4.0149549058       28.0287269833
  H         0.2084422978        5.7112452540       27.5870731880
  C         1.9238896832        5.0141486144       28.9199014612
  C         5.0203598997       -0.5669687867       32.5793440745
  H         7.1028288075        3.0816161688       17.9959521736
  H         6.3108595425        3.4311583149       19.4621619230
  C         5.3782623913        1.8563638699       18.0399040364
  H        10.5582612854        2.3300496601       22.2737267968
  H        11.1624485933        3.1196860850       20.9151810098
  C        12.3618994617        1.3570405310       21.4974337801
  C        10.0542985487        7.4899454662       16.9650385311
  C        10.1746510738        5.2466680348       15.8530439760
  H         2.5321795177        4.1506824624       29.1794975323
  H         2.6225310141        5.7743217598       28.5756627878
  C         1.2774357153        5.2194404791       30.3060096158
  H         5.2378025620       -1.5729646285       32.5132540403
  C         4.6191133425       -0.1050648402       33.8092911747
  H         5.4598192804        0.8189572872       18.0416209385
  H         5.3396604214        2.0008376680       16.9182694871
  C         3.9767660622        2.2720399348       18.3940503526
  H        12.1848534508        0.7030956633       22.3624731909
  H        12.6516522198        0.6980814603       20.6187156943
  C        13.4499714751        2.3937459954       21.7294126949
  N         9.7757241475        8.4590703967       17.9213392765
  C        10.3312504085        8.0757231165       15.7489006618
  C        10.4401892015        5.8977008180       14.6433701781
  H        10.2096580158        4.1166760415       15.8162513363
  H         0.6220956999        4.4179713331       30.5787087577
  H         2.0482600260        5.2295379013       31.0924847632
  H         0.6696928120        6.1758776711       30.1208755703
  S         4.2321828404        1.5200277145       34.2247390588
  C         4.6700614821       -1.0237714911       34.9550457539
  H         3.9952901315        2.7637519976       19.3391620435
  H         3.5790151153        2.9438093630       17.6130852495
  C         3.0040246515        1.0755451452       18.6601445575
  H        13.1389401755        3.3516404459       22.0169385602
  H        13.9222203781        2.4689008999       20.7700174867
  C        14.2912320608        1.6421768457       22.7887018576
  S         9.8588498552        9.8801824327       17.2623002891
  N        10.3147135596        9.4517054905       15.7895189367
  C        10.5644103318        7.3960643253       14.5113385098
  H        10.5966820242        5.2459552016       13.8135520172
  C         4.0141527854        0.9554633242       35.8618781949
  N         4.2422385765       -0.3600435304       36.0667784924
  O         5.0110316798       -2.1776486238       34.9251445333
  H         2.0389652644        1.5214128395       19.0593748409
  H         3.4830783597        0.3716692665       19.4493024549
  C         2.7088597856        0.3297231758       17.3616349111
  H        13.6691090687        1.3410409061       23.6668765503
  H        14.7082973987        0.7562531328       22.3219732421
  C        15.3849012043        2.5732803347       23.2852880798
  C        10.7686192570        8.0973317788       13.2863551784
  S         3.7054971985        2.0300123477       37.1983931463
  C         4.2293949214       -0.9065885703       37.4323191517
  H         1.9402049265        1.0163309523       16.9062807837
  H         3.6144886689        0.3800310059       16.8006422385
  C         2.0834768528       -1.0915650371       17.3429279811
  H        15.6260752519        2.1387034011       24.3108231862
  H        14.9369930326        3.5524801564       23.4062213204
  C        16.5614390696        2.5625461517       22.4110557507
  H        10.3390920701        9.0466469366       13.3442243881
  C        11.3258341004        7.7754845591       12.0355078924
  H         3.9032086794       -0.2049772525       38.1404503382
  H         3.5957550042       -1.8094502348       37.4448665945
  C         5.6465887891       -1.3005455472       37.8624431811
  H         2.8749601385       -1.6549566988       16.8762706800
  H         1.2225103392       -1.0242674108       16.6487631922
  C         1.5487197479       -1.4790772277       18.7180670406
  H        16.2670865789        2.2180944571       21.4416987742
  H        16.8503643265        3.5889846099       22.2319657263
  C        17.7763608343        1.6850862317       22.8462167913
  S        12.1377406898        6.2693610025       11.6958521329
  C        11.2170551881        8.7789411715       10.9462335939
  H         6.3617792484       -0.6495516703       37.2700051251
  H         5.8815167154       -1.1274330143       38.8838077885
  H         5.7377701938       -2.3697371572       37.6414117026
  H         0.9203539054       -2.3899774858       18.7403659457
  H         0.8638332020       -0.7090891112       19.1004126255
  H         2.3312820898       -1.6541338511       19.4659944377
  H        17.9930077668        0.9621013773       22.0389780435
  H        17.5575162010        1.1269935324       23.6925815207
  H        18.5378589390        2.4359298049       23.0964905515
  C        12.3036214352        6.9491346642       10.0168178643
  N        11.9543048485        8.3061526599        9.8766694959
  O        10.7738283219        9.8988049483       11.1292826089
  S        13.2384594783        6.2990175764        8.7031640966
  C        12.1148460794        9.1142627715        8.6953527156
  H        12.3490083452       10.0820731192        9.0616610526
  H        12.9667861695        8.8475297510        8.1430104006
  C        10.9281260463        8.8690000592        7.7893746730
  H        11.1230104655        9.2086535466        6.7245517357
  H        10.9110646779        7.7707193979        7.6621840041
  H        10.0316799146        9.2547536729        8.2551562041
  H         4.4302897606        1.6416336759       12.5727334960
  C         3.7852089045        2.5078944339       12.6798500623
  H         4.4837537484        3.3354645481       12.7478735559
  C         2.8506150263        2.7358924067       11.4450653993
  C         2.9385102114        2.4501378649       13.9891612731
  C         3.6524760769        2.9414295985       10.1939445778
  H         2.1824819630        3.5724979499       11.5339585723
  H         2.1986468725        1.8667751097       11.3022663759
  H         2.1632338125        1.7135320289       13.8527699667
  H         2.6042469063        3.5169352211       14.2037542371
  H         3.7075417328        2.1638498825       14.7289716269
  C         4.2836026877        1.6760161207        9.5456304119
  H         3.0024372201        3.4174166265        9.5232958347
  H         4.3521878691        3.7327708383       10.3595374661
  C         4.9897190842        1.7539949871        8.2322484263
  H         3.6216374925        0.8382708600        9.3840382701
  H         5.0746949599        1.2999107341       10.2106681498
  C         6.2693083946        2.6274271977        8.1502826211
  H         4.3093631062        2.2247539990        7.4957618110
  H         5.1496913534        0.7298605326        7.7631214919
  C         7.5657438402        1.9607617194        8.7748016517
  H         6.4847785994        2.8453592257        7.1294595473
  H         6.0388678261        3.6092054637        8.7031409245
  C         8.9659932142        2.6849086790        8.8736835639
  H         7.6919418219        0.9493828140        8.2904079451
  H         7.4053617745        1.5123643181        9.7829981509
  C         8.5925312134        3.9472193299        9.5345123653
  C         9.5124255196        3.3506378684        7.6897112746
  C        10.0418709883        1.7782145780        9.5765781776
  C         8.9182677746        5.0711443026        8.8022413408
  C         7.9698868482        4.2687813384       10.7621644179
  C         9.4536032045        4.7148469267        7.5950266543
  C         9.9509478440        2.7250307540        6.5161555416
  H         9.6973880728        1.3759335730       10.4944561912
  H        10.1808881996        0.8384669360        8.9760557521
  C        11.4241213470        2.4625706208        9.8996139842
  S         8.7413328596        6.5024336877        9.6628752122
  C         8.0995329911        5.6223969043       10.9783385285
  H         7.5372342579        3.4646690467       11.4372762778
  C         9.8864095651        5.3174057451        6.4465418235
  H         9.7918476300        1.6831887953        6.6028633585
  C        10.2672614257        3.3391338751        5.3852362520
  H        11.1105538168        3.3634155816       10.3805344879
  H        11.9893036083        2.7301840204        8.9949017152
  C        12.4975721528        2.0204944151       10.9430624123
  C         7.7846311118        6.2480954425       12.2901411070
  C        10.3549360108        4.7116295845        5.3032389394
  H         9.7610682635        6.4039967237        6.4170319402
  C        10.6735722022        2.9021521730        4.1223441899
  H        13.2822992817        2.7325067198       10.8919184246
  H        13.0118176383        1.1011755388       10.6439480306
  C        11.8748735938        1.7952115098       12.2850263278
  C         7.7767918527        7.6150486555       12.4527682732
  C         7.3679544644        5.4223568491       13.4301189786
  C        10.7304589773        5.3575665775        4.0045906654
  C        10.9188042705        4.0188132984        3.2852597569
  S        10.8266566822        1.4312626810        3.2730130616
  H        11.5144116151        2.7049309369       12.5545873686
  H        11.1913311054        0.9404622681       12.3098708710
  C        12.9288925967        1.5402323544       13.4098177498
  N         8.0746442723        8.6378202260       11.5057682526
  C         7.3790983172        8.1499982537       13.6784988330
  C         6.9621224373        5.9763574281       14.6294414766
  H         7.3623071520        4.3305211107       13.3307850135
  C        12.0826052811        6.1556149924        4.1787238322
  C         9.6195662080        6.2515644986        3.3794042585
  C        11.2552425981        3.6475805281        1.9543671540
  C        11.2717593677        2.3065505215        1.8640054077
  H        13.8513616837        2.0031981100       13.4134812596
  H        13.2257068700        0.5311604079       13.3664278572
  C        12.2207467003        1.8602494856       14.6820327839
  S         7.9122897944       10.0896778010       12.2220613173
  N         7.5703150363        9.5769341367       13.7078619688
  C         6.9938304990        7.4106503187       14.8340439647
  H         6.6423907573        5.3440245127       15.4464281612
  H        11.9207159342        7.1083916050        4.6189106686
  H        12.6885681266        6.2421430400        3.2877631120
  C        13.0578508624        5.4141461227        5.1101527583
  H         9.2675486841        6.9653276015        4.1557121743
  H        10.0058628487        6.9880932109        2.6475526588
  C         8.4055964186        5.4770792772        2.8230966474
  H        11.4779154937        4.4072310166        1.2340842328
  C        11.6355390085        1.5853835685        0.5638056873
  H        12.0084582842        2.9385660725       14.8231163220
  H        11.2988937242        1.3385573259       14.6217220861
  C        13.0798373417        1.2832491749       15.8418715359
  C         6.6158940208        8.1398118525       16.0739804273
  H        12.6711507073        5.4405846146        6.1789682180
  H        13.3056205049        4.4167113078        4.7988857835
  C        14.4035887338        6.1290030879        5.2938238257
  H         8.0928161106        4.6543932622        3.4472264606
  H         8.6414219478        4.9880825981        1.8642687288
  C         7.2321645965        6.4211803934        2.5392841041
  C        11.7553034975        0.1731932051        0.3763348201
  C        12.0540076391        2.4053871082       -0.6162596270
  H        14.1573655033        1.5672272679       15.7203338032
  H        12.9936876774        0.2036094128       15.7781639610
  C        12.4412647799        1.6863348100       17.1085718351
  H         6.5919102086        9.1973466046       15.9551784603
  C         6.5011266872        7.7505569524       17.3730394444
  H        14.2180299916        6.9662825766        5.9497413057
  H        14.7001911524        6.5546247666        4.3219056337
  C        15.4800872215        5.1931702270        5.7355450325
  H         7.1367081354        6.9844896357        3.4507614772
  H         7.5243337528        7.0756649878        1.7434864655
  C         5.8716239977        5.7724579317        2.1486945541
  N        11.6275155750       -0.7075107364        1.4017909419
  C        11.9830412646       -0.4438595358       -0.8583376214
  C        12.3167935421        1.8151430996       -1.8493243424
  H        11.9418645781        3.4829399415       -0.5393602018
  H        12.4109270845        2.7329265720       17.4068924152
  H        13.0147896195        1.2411702690       17.9901195816
  H        11.4157597637        1.1919393132       17.0578862186
  S         6.4152557142        6.0734806834       18.0088393497
  C         6.2913681308        8.7544144057       18.4309118229
  H        15.2359843342        4.8125522978        6.7238323438
  H        15.5004193277        4.2904848820        5.1643001702
  C        16.8058827098        5.9309864600        5.7661960264
  H         5.4854999895        5.1232633200        2.9453926105
  H         6.1138256997        5.1629557800        1.3215595526
  C         4.8955704097        6.8460105454        1.5935338317
  S        12.0178417225       -2.1797721711        0.8274403004
  N        12.1604121112       -1.8104733753       -0.7392021092
  C        12.3283010298        0.3073742072       -2.0081574109
  H        12.4809949058        2.4086153866       -2.7879843638
  C         6.0013020440        6.7845765785       19.6041064290
  N         6.0620285789        8.1146513682       19.6302076020
  O         6.3539397452        9.9666990033       18.3048670907
  H        17.4034871536        5.6053905403        4.8835154864
  H        16.4846066934        6.9576823989        5.7823823862
  C        17.6942052309        5.3908386536        6.9549213136
  H         5.2974907652        7.0650274040        0.6191144453
  H         3.9471462340        6.3692104608        1.4605511406
  C         4.8406091206        8.0667912893        2.5176571806
  C        12.7226271979       -0.4590411294       -3.1515223821
  S         5.5784599281        5.8851237151       21.0446243597
  C         6.0107246515        8.8204649076       20.8639362712
  H        17.2666872929        5.5407506044        7.9802335614
  H        17.7422831955        4.3382947885        6.6976328556
  C        19.0925393530        5.9444416102        6.8326210481
  H         5.7688609439        8.7034145537        2.4266965907
  H         4.7071746852        7.7263609285        3.5469202914
  C         3.5096993105        8.8490456294        2.0965027087
  H        12.6360969393       -1.4820487289       -3.0295109192
  C        13.1980484812       -0.1234482160       -4.3852454788
  H         5.3229801229        8.3529739744       21.5130305505
  H         5.6482822349        9.8152080721       20.5446328800
  C         7.3565464716        9.1091567941       21.4822485295
  H        19.5428730812        6.0636790452        7.7756291522
  H        18.9183436741        6.9788103351        6.4344803718
  C        20.0511264946        5.1921202149        5.8654657311
  H         2.6646329568        8.1411600252        2.1291513433
  H         3.2016418953        9.7103662092        2.7599578214
  C         3.6694827756        9.4565086222        0.6397413186
  S        13.5037218580        1.4714216355       -4.9999334174
  C        13.3867054766       -1.2651459489       -5.3328144499
  H         7.9913857855        8.1698852596       21.4694871016
  H         7.1990682581        9.4231692687       22.4510187027
  H         7.9852936071        9.7609398686       20.8450922039
  H        20.9292026777        4.8654842491        6.3928226035
  H        19.5832037334        4.2391308407        5.3987611936
  H        20.4220069523        5.8250822794        5.0528735569
  H         3.2859726606       10.4396974402        0.5328420533
  H         4.7470516142        9.4983856727        0.3749776906
  H         3.1960565251        8.8684481435       -0.1335437739
  C        13.9000705402        0.5681965982       -6.4878940759
  N        13.7803625579       -0.7446043938       -6.5015162259
  O        13.0163567794       -2.4011086741       -5.0980425833
  S        14.7622768690        1.3418734945       -7.7990521409
  C        13.7579851583       -1.5049116592       -7.7525120306
  H        13.7164904076       -2.5645741449       -7.4277916829
  H        14.7516776646       -1.3947959214       -8.2569477894
  C        12.5077559663       -1.2253013627       -8.5890205614
  H        11.5618923260       -1.1407931712       -8.0874890090
  H        12.4915923160       -2.0688111815       -9.2655495408
  H        12.7399922810       -0.3465698603       -9.1901321186
