352
 i =    57100, time =    28550.000, E =        99.6864344338
  H        10.3013344881        4.2915476882       31.7296368315
  C        10.3718392495        5.2576189368       32.2134820133
  H         9.3691158171        5.5219527955       32.3885339444
  C        11.0531797788        6.2315789707       31.2236975015
  C        11.0994016032        5.2245331389       33.5608055248
  C        11.4474837717        5.7132182489       29.9172287435
  H        10.3433039238        7.0777094014       31.0784489836
  H        11.8881187819        6.6618753013       31.6861167528
  H        12.1193160403        5.4440696215       33.5104775224
  H        10.4334467644        5.7974924512       34.2018334562
  H        11.1856223569        4.2589943536       33.9028430566
  C        10.1523939072        5.6598347983       28.9668010347
  H        11.7183673504        4.6612059808       29.9988517549
  H        12.2754320577        6.3009230989       29.6093151479
  C        10.5575185116        5.2307814647       27.5972283197
  H         9.3556690310        5.1379329045       29.3478947253
  H         9.7584927785        6.6800346804       28.9202091676
  C         9.4141493353        4.4731461024       26.9273345361
  H        11.4770906233        4.6228875468       27.6086144506
  H        10.8990383092        6.1363807027       27.0480650424
  C         8.3906547175        5.4737688088       26.3134790123
  H         9.7625114251        3.7766387761       26.1933010881
  H         8.9542538743        3.8802985727       27.7189333942
  C         7.1500619181        4.8049532312       25.5146025192
  H         8.0366719161        6.1975690654       27.0974669256
  H         8.9905602341        6.0159647913       25.5817295332
  C         6.8229906380        3.4429037260       26.2330625508
  C         7.6084269621        4.1034707496       24.3145239829
  C         5.9433490221        5.6952885243       25.2348506642
  C         7.0113690156        2.3529578622       25.3369074840
  C         6.2774582080        3.0669012908       27.4855796942
  C         7.6310116108        2.7559140372       24.2153580979
  C         8.1739829413        4.6953914229       23.1936139528
  H         6.1555452519        6.4945977681       24.6089194566
  H         5.6428671984        6.2290686352       26.1808146033
  C         4.6666909166        4.9889403820       24.7857889928
  S         6.5290519671        0.8525654576       26.0117467509
  C         6.0672299236        1.7117794453       27.5611842943
  H         6.0241038493        3.8080828255       28.1834516452
  C         8.0102029800        2.1443618256       23.0395553719
  H         8.0740266030        5.7742674554       23.1687387607
  C         8.5885539002        4.0802651577       22.0312277465
  H         4.8195967021        4.5366278810       23.8358428228
  H         4.3801863527        4.1518805032       25.3458507373
  C         3.3365234013        5.8669255330       24.6929469477
  C         5.6586911962        0.9225738097       28.7361142483
  C         8.5754382751        2.6989631341       21.9395704604
  H         7.8762303059        1.0691468106       23.0593256221
  C         8.8833699728        4.4328947905       20.7270030570
  H         2.6471561171        5.4268111813       24.0202090568
  H         3.7248832763        6.7429721845       24.2450285169
  C         2.6158708270        6.2027109749       25.9958327324
  C         5.7073591385       -0.5148752082       28.8844285296
  C         5.1645772090        1.6665553639       29.9570442757
  C         9.0181307738        1.9573738939       20.6654054297
  C         9.2092410125        3.3135179311       19.9057505004
  S         8.9418608003        5.9856019801       20.0457459283
  H         1.8642072432        6.8492295228       25.6084000604
  H         3.2958236177        6.7151912676       26.6798726824
  C         1.9136161345        4.9503258334       26.6652428709
  N         5.9263455898       -1.4208614885       27.9048284453
  C         5.3992238088       -1.1158140751       30.0882337710
  C         4.9386206396        1.0679241847       31.1454053560
  H         5.0192170506        2.7324814925       29.8606556891
  C         7.8187290528        1.1763788096       19.9620609397
  C        10.3853994545        1.1314524407       20.7568086072
  C         9.4677155362        3.7889118698       18.5856990135
  C         9.4242162750        5.2030138352       18.6238266965
  H         1.0678541959        4.7225026703       26.0614775369
  H         2.5861015977        4.1478739268       26.6807394965
  C         1.2687920096        5.3982419944       27.9661825142
  S         5.9497580303       -2.8719413738       28.5558892847
  N         5.4923169913       -2.4846226152       30.0465451220
  C         5.0408530937       -0.4246038688       31.2937151535
  H         4.6022070208        1.6810521682       31.9075691307
  H         7.5074983935        0.3006003660       20.5576839357
  H         8.0155612293        0.7690199930       18.9168315970
  C         6.6334470083        2.1117040197       19.6056416062
  H        10.5355860961        0.6901299995       19.8011020383
  H        10.2679585960        0.4175265455       21.5717555735
  C        11.5559860651        2.0477603916       21.0238043638
  H         9.6706994803        3.0084894727       17.8420279157
  C         9.6824616841        6.0096613639       17.3635505258
  H         0.2014740185        5.1380550030       28.1170820477
  H         1.2453068682        6.5644868084       28.0233683655
  C         2.2427151547        5.1788044624       29.1322612591
  C         4.7916266844       -1.0975724458       32.5238862097
  H         6.8711751236        2.8938142866       18.8261561230
  H         6.2695591923        2.6358377871       20.4989888841
  C         5.5245927248        1.2866402406       19.0380371973
  H        11.4183373522        2.8152832297       21.7468831286
  H        11.7032997918        2.5721515098       20.1017908439
  C        12.8195891859        1.3222720756       21.2330163127
  C         9.7394326189        7.4254477827       17.2470236465
  C         9.7738088131        5.2582041833       16.1243372555
  H         2.8413067111        4.2973190509       29.0248841696
  H         2.9947001155        5.9781627631       29.1961498203
  C         1.4158647126        5.1383429450       30.4251274942
  H         4.9059085220       -2.1703003619       32.5840406422
  C         4.4546046993       -0.5564665715       33.7619709345
  H         5.0817653202        0.7007985441       19.8516059620
  H         5.8822316450        0.5638303865       18.2962248426
  C         4.4767369428        2.0606326643       18.2407264748
  H        12.7786473486        0.5546188768       22.0478979344
  H        13.1786831902        0.8535888156       20.2361618713
  C        14.0043268314        2.2213154128       21.6611994357
  N         9.5403412671        8.3132178458       18.3386319406
  C        10.1216184546        8.0326266946       16.0934648517
  C        10.0932866184        5.9224368642       14.8860708630
  H         9.5969186759        4.1991333158       16.1401140952
  H         2.0829242414        4.8466723402       31.2775960599
  H         0.7780287497        6.0409473780       30.5732864981
  H         0.7198866628        4.3038195119       30.3593099892
  S         4.3363415670        1.1505776535       34.2739715045
  C         4.3449157260       -1.4703159603       34.8476508706
  H         4.4674912460        3.0750233736       18.6117786230
  H         4.7774802515        2.0528817429       17.2257804498
  C         3.0513578805        1.5106528862       18.4409489412
  H        13.8026282978        2.6890423716       22.6460181607
  H        14.0643864575        3.0168023324       20.8593660197
  C        15.3228318358        1.4348974225       21.7452532815
  S         9.8120105596        9.8048671293       17.8412321070
  N        10.2141757426        9.4376708215       16.3137946840
  C        10.3838221977        7.3846060254       14.8916547758
  H        10.2177055151        5.2949903249       14.0511965524
  C         3.9636844630        0.5429496449       35.8627716527
  N         4.1814509302       -0.8075736340       35.9892862849
  O         4.4623800953       -2.7423444360       34.7144283323
  H         2.4985037555        2.2451215005       17.8801420600
  H         2.9176439615        1.4360108911       19.5196714853
  C         2.9197512142        0.1973697052       17.6789418455
  H        15.3352320471        0.7591309230       22.5634345041
  H        15.3220299589        0.7942599490       20.8814327935
  C        16.6241319315        2.2762939893       21.6196947276
  C        10.6427409490        8.1565707697       13.6919236354
  S         3.6046945165        1.4464919742       37.2989118557
  C         4.2024799403       -1.4796779921       37.3148424136
  H         2.5006332072        0.5476166274       16.6966392795
  H         3.8877403923       -0.1898476874       17.4641335951
  C         2.1768989932       -0.9584352848       18.3909373518
  H        16.3323894703        3.2696261320       21.6409646005
  H        17.0613644211        2.0900461514       20.6373199395
  C        17.6369210489        1.8533379261       22.6808910523
  H        10.5353410041        9.1848372632       13.8585534754
  C        11.1031022816        7.9683808703       12.4202898961
  H         3.3982025146       -1.1392909731       37.9630029791
  H         3.9011294440       -2.4748358486       37.0382901894
  C         5.6077091041       -1.5261968688       37.9623036795
  H         1.2215515146       -0.5742601091       18.5735353318
  H         2.6849537626       -1.2333671787       19.2413536202
  C         2.0513681211       -2.0757226420       17.4164053118
  H        18.2100035241        0.8855227864       22.5253470652
  H        18.4467590863        2.6091019970       22.6910137484
  C        17.0215839671        1.7900950669       24.0630943758
  S        11.7075705503        6.5568817771       11.7836326548
  C        11.2013250251        9.1048291607       11.4607147680
  H         5.7645862971       -2.3661014795       38.6673288731
  H         6.4357459060       -1.5456861529       37.3097236099
  H         5.7143203143       -0.5766837681       38.5181051946
  H         1.2811199064       -2.8388959281       17.7722519856
  H         3.0171466176       -2.6697255881       17.4104159439
  H         1.9418231166       -1.7245362572       16.3566602778
  H        17.7110092524        2.0471917125       24.8136548130
  H        16.6053511294        0.8443764076       24.2988931892
  H        16.2895625125        2.6198880099       24.0810941528
  C        12.2733471352        7.4619355191       10.4465260973
  N        11.8984493172        8.7597527974       10.3608959691
  O        10.7684928316       10.2467143077       11.7044302089
  S        12.7496321192        6.7113528508        8.9261809741
  C        11.7713013962        9.6363944005        9.2056258866
  H        11.6747665481       10.6953813061        9.5024914209
  H        12.7704664275        9.5882776573        8.7418981481
  C        10.7120478650        9.2152407941        8.2453387083
  H         9.9731824916       10.0453728446        8.0764989618
  H        11.1485110501        9.0015499987        7.3035155574
  H        10.1387760222        8.3240870225        8.6178141205
  H         4.2610065599        1.2243665655       13.0355492156
  C         3.7834830420        2.1337113656       12.9724631755
  H         4.5097863264        2.9104523902       12.9140161024
  C         2.8449998204        2.0744405600       11.7537849271
  C         3.1945114477        2.3022373745       14.3720353689
  C         3.4697583583        2.4296594670       10.4637555282
  H         1.9985373516        2.8670970225       11.8734834804
  H         2.3341112544        1.1153803022       11.7877419340
  H         2.7476380345        1.3215240412       14.6209383734
  H         2.3828060756        3.0628776671       14.4464785479
  H         3.8677914155        2.6067671782       15.1208000031
  C         4.5335250455        1.4031274501       10.0460953159
  H         2.7448413662        2.3988457155        9.6496069220
  H         3.9618507220        3.4360339628       10.4927757099
  C         5.1128880820        1.7174613080        8.7096005880
  H         4.0272393345        0.4368093896        9.9246346631
  H         5.3131616567        1.4242892688       10.7595574732
  C         6.2892569936        2.6097599825        8.7975594418
  H         4.3533650280        2.1409117515        8.0831448356
  H         5.3956369993        0.7927593840        8.2160834698
  C         7.5991857252        1.8198382563        9.1252690220
  H         6.5205441694        3.0888580072        7.8189772054
  H         6.0993327897        3.4181995552        9.5470509540
  C         8.8549845925        2.7161201324        9.3450556546
  H         7.8374279342        1.0454741937        8.4514876267
  H         7.4154787557        1.1582023202       10.0494944239
  C         8.4430617263        4.0384694604       10.0625735384
  C         9.1544030904        3.3882153760        8.0641793373
  C        10.0901070607        2.0725926582        9.9207073455
  C         8.6715023446        5.1491346777        9.2694668403
  C         8.0064525644        4.3375982000       11.4100968890
  C         9.1166984872        4.7724114693        7.9905271861
  C         9.7891554445        2.8354914890        6.9598753563
  H         9.7303003442        1.6986624540       10.8284871585
  H        10.4148810413        1.2125883667        9.1845897267
  C        11.2115803198        2.9743914301       10.1282829574
  S         8.3929943099        6.5998432635       10.1306114047
  C         7.8624839916        5.6938733486       11.5495584224
  H         7.8152549254        3.5656339204       12.1151672712
  C         9.5735565259        5.3899066277        6.8636750248
  H         9.9325109536        1.7946278970        7.0215998596
  C        10.1744049168        3.4733357568        5.8138847357
  H        10.9391670191        4.0500941788       10.4339789660
  H        11.6083424876        3.0922643208        9.1482559793
  C        12.3890081613        2.3995293952       11.0435450050
  C         7.3612193675        6.3392700457       12.7671642037
  C        10.0385334284        4.8462606662        5.7163337345
  H         9.4157726241        6.4314368276        6.9372147281
  C        10.4769090454        3.1098792806        4.5588838164
  H        13.3661143971        2.8209675492       10.7321346499
  H        12.5830628564        1.3755523061       10.9260458532
  C        12.1588108814        2.7085690170       12.5291850912
  C         7.4379764422        7.7100006738       13.1348303755
  C         6.8121920568        5.4596390731       13.8252038926
  C        10.5086634379        5.5689475460        4.5112662352
  C        10.7340463525        4.2391319253        3.7782491645
  S        10.8358147585        1.6356616093        3.7479448543
  H        12.7922529912        3.4915136639       12.9037040157
  H        11.1423834953        3.0821766619       12.7704799295
  C        12.3129819334        1.5175936493       13.5741590290
  N         7.5568805584        8.7003279330       12.1632203293
  C         7.1003749049        8.2241932909       14.3676824773
  C         6.4638305105        6.0475676797       15.0182491946
  H         6.6325312047        4.3970694543       13.6646318015
  C        11.8453839542        6.3968790352        4.9265278060
  C         9.3954872691        6.3400257922        3.8446202356
  C        11.0296367499        3.8706115897        2.4433482929
  C        11.0013260508        2.5025744504        2.2528354279
  H        13.2271830516        0.9339374168       13.3992926164
  H        11.4871370821        0.7879850145       13.4437337095
  C        12.0855520195        1.9324390058       15.0495887718
  S         7.5206495135       10.1767056261       12.9421365151
  N         7.2329260998        9.5647936818       14.4301878023
  C         6.7460992376        7.4329142684       15.4327875135
  H         6.0750208492        5.4013682304       15.8152927218
  H        11.7724151451        6.8560133492        5.9881670462
  H        11.8448590396        7.2021235824        4.2237081993
  C        13.1603245741        5.6016768375        4.9291807437
  H         8.8960155915        6.8668889505        4.6529400876
  H         9.8297978166        7.1700830339        3.2341092624
  C         8.2713641715        5.5552414830        3.1079920720
  H        11.1558873304        4.6514045427        1.6903124094
  C        11.3743344058        1.7632812059        0.9835968823
  H        11.8127018768        2.9962386887       15.0429790172
  H        11.1849074707        1.4286559624       15.4232081461
  C        13.2135595658        1.7459487833       15.9474391550
  C         6.2450479280        8.0842092594       16.6420629456
  H        13.2029794938        4.9699453967        5.8457890095
  H        13.3345129167        5.0425009134        4.0655300984
  C        14.3513870582        6.6187709254        5.0300735578
  H         7.6772519241        5.1673205404        3.8926552057
  H         8.5981516016        4.6643818435        2.5573800961
  C         7.3544024312        6.3456241843        2.1860532757
  C        11.4583076950        0.3460275778        0.8046837392
  C        11.6340782821        2.5623418145       -0.2203098534
  H        14.1625988269        2.1744309925       15.5590588046
  H        13.4372866736        0.7605198031       16.3270922972
  C        13.0227932996        2.4180356920       17.2753719692
  H         6.1444016079        9.1573621218       16.5697255827
  C         6.0698542436        7.5211282516       17.9104169996
  H        14.1515842758        7.2861545163        5.8656007560
  H        14.5218405576        7.2409793357        4.1383003438
  C        15.7031270160        6.0378679420        5.3547006622
  H         7.7554041175        7.3042810792        1.8106805777
  H         7.2245571549        5.7472709592        1.3222947063
  C         5.9792686536        6.5641577213        2.6925707637
  N        11.1533648023       -0.6440889157        1.7408771463
  C        11.8522016565       -0.2258598113       -0.4084570287
  C        12.0412297959        1.9480227457       -1.3831171479
  H        11.4567510731        3.6744835461       -0.2340294659
  H        13.3829261999        3.3795497996       17.1975291120
  H        13.4690984951        1.9110090368       18.0961013669
  H        11.9668401545        2.3882359372       17.4932100716
  S         6.0025350971        5.8776218443       18.3573630744
  C         5.9973522937        8.4553572731       19.1094801466
  H        15.9895890381        5.1533925165        4.8082132380
  H        16.4702077694        6.6453035400        5.1072919903
  C        15.8456139243        5.7433675945        6.8919522248
  H         5.8759335403        7.3672345020        3.4159739132
  H         5.7194176740        5.6224157005        3.2020690127
  C         4.9501529698        6.7460996960        1.6074307558
  S        11.5124467939       -2.0958573771        1.1148512718
  N        11.9145484283       -1.6294528871       -0.3821384261
  C        12.1179482039        0.5141234259       -1.5713197541
  H        12.3483166053        2.5218633684       -2.1721668678
  C         5.7489641003        6.4256027209       20.0261700589
  N         5.6533069455        7.7977752422       20.2544169705
  O         5.8714395940        9.6479267832       18.9709015035
  H        16.0897274280        6.7747724515        7.3658046762
  H        14.8295496953        5.4853074430        7.2378492088
  C        16.9449207036        4.7320234932        7.1027616234
  H         5.5206247147        6.7635574618        0.6394821722
  H         4.3023041886        5.8395828063        1.4849694760
  C         4.0620479580        7.9083148751        1.9027247762
  C        12.4327586799       -0.2623510153       -2.7264993154
  S         5.2949633107        5.4286181638       21.3509146648
  C         5.5911818419        8.4851973520       21.4987715760
  H        16.7489987991        4.5120829279        8.1577987612
  H        16.9305439825        3.7884040583        6.4972683904
  C        18.3296456967        5.2893263151        6.9929966831
  H         3.8463832735        7.8941600073        2.9486973978
  H         3.0999068347        7.7853679304        1.4281372789
  C         4.7609012835        9.2080309342        1.5449856791
  H        12.2676883590       -1.3425881602       -2.7355257470
  C        13.0678235659        0.1084954612       -3.9226585817
  H         4.8324012184        7.9295120683       22.1433020488
  H         5.1792690622        9.4946487849       21.3183841303
  C         6.9833049896        8.6436289448       22.0244834267
  H        18.9202113869        5.0429207734        7.8839341479
  H        18.3205888697        6.3836721289        6.8850890066
  C        19.0123615843        4.6880098626        5.8019247782
  H         4.8677082729        9.8288868616        2.4056031361
  H         5.7855295283        9.0536551259        1.1363152520
  C         3.9842001915        9.9992287282        0.5144999892
  S        13.6171783472        1.6495968512       -4.2996133701
  C        13.2155692488       -0.8793374697       -5.0282946881
  H         7.2493368154        7.7648625997       22.5863796892
  H         6.8896686202        9.5374630132       22.6675889684
  H         7.5938262567        8.8821743621       21.2325086461
  H        18.4110957971        4.7218575786        4.9695001767
  H        19.9596225797        5.2289970179        5.6394006275
  H        19.2330186521        3.6218175876        6.0303341788
  H         4.4079606963       10.9951195259        0.4524797886
  H         3.9170968624        9.4221491656       -0.3943870793
  H         2.9737800161       10.1328503221        0.8413808143
  C        14.0747783488        1.0428417367       -5.8780129689
  N        13.9665955160       -0.3343917425       -6.0411893587
  O        12.7612458120       -1.9935224002       -4.8962814240
  S        14.5222355433        1.9177005096       -7.2596163085
  C        14.1973363130       -1.0660456306       -7.3091535848
  H        14.4208857796       -2.0701655761       -6.9861678627
  H        15.1047430401       -0.6095318864       -7.6803960853
  C        12.9112864066       -1.1271051406       -8.2323670156
  H        12.9288944864       -0.2940318139       -8.9929354328
  H        12.0140294795       -1.0060575488       -7.6324376753
  H        12.7146330641       -2.0034110673       -8.8440994548
