352
 i =    82000, time =    41000.000, E =        99.1330923626
  H        11.5757147781        6.7467678194       32.9189570618
  C        11.3803264172        5.6795876252       32.7433521482
  H        12.4299178290        5.1996328520       32.6811661919
  C        10.4857614713        5.5500551919       31.4804551866
  C        10.6879968988        5.1314479336       34.0091635565
  C        10.9320170376        6.3012404379       30.2683635505
  H        10.3801285694        4.4485808727       31.2216692809
  H         9.4608046124        5.7969428459       31.7371816581
  H         9.7374907653        5.7511201897       34.1080727230
  H        10.5017829173        4.0847385652       33.9890997989
  H        11.3202018331        5.3600517886       34.9148319374
  C        10.2519059256        5.5925566542       29.1037146132
  H        11.9960522883        6.1256189184       30.3124855187
  H        10.6565060433        7.4274067541       30.4142134127
  C        10.7494309574        5.9430222805       27.6367427514
  H        10.3529543667        4.5078833028       29.2081395465
  H         9.2295437540        5.7506044068       29.2530718847
  C         9.8947091976        5.2122363334       26.6367744968
  H        11.8089263380        5.6971371989       27.4999315606
  H        10.6172198550        7.0032819422       27.5637621439
  C         8.5991936777        5.9329781011       26.4498106155
  H        10.5133770382        5.2348670904       25.6908090094
  H         9.8318057435        4.1393955982       26.7459392991
  C         7.4878281139        5.1223392252       25.7069715594
  H         8.2025086503        6.2355993905       27.4563634119
  H         8.8647587093        6.8827989372       25.8971657809
  C         7.0477269889        3.8466919997       26.3747228632
  C         7.9902157495        4.3543864047       24.4776506853
  C         6.2565853175        5.9895398297       25.5287585226
  C         7.1536897623        2.7248538644       25.5616359738
  C         6.5675279177        3.5069990665       27.6590959465
  C         7.7221107929        3.0597416940       24.3723466096
  C         8.4491448165        4.9128389996       23.3164280202
  H         6.4765635085        6.8752978343       24.9462774350
  H         6.0316446871        6.3906088722       26.4968041383
  C         4.9646617851        5.3338221225       25.0764802141
  S         6.6197483007        1.2932085847       26.2887816771
  C         6.2669543957        2.1595750870       27.7144710343
  H         6.5383791423        4.2614944843       28.4085357431
  C         8.1555004893        2.3643857434       23.2829588500
  H         8.4082299222        6.0200134717       23.2804021502
  C         8.6799162173        4.2821117064       22.1983423221
  H         5.1449982855        4.7104695630       24.1998348917
  H         4.6994584873        4.5780996783       25.7851492191
  C         3.7080390500        6.2341992568       24.8003937909
  C         5.7636906392        1.4737548440       28.9531998404
  C         8.6235047042        2.9351747051       22.0884575310
  H         8.1115968558        1.2735949381       23.3220186170
  C         9.0470546214        4.7439287537       20.9225283608
  H         3.1287926850        5.7329324131       23.9909000414
  H         3.9212349531        7.2002096399       24.3554495666
  C         2.7481002410        6.3271046641       26.0454661263
  C         5.7601839672        0.0693206538       29.2048890855
  C         5.2943514750        2.2178136054       30.1556844114
  C         8.9836552233        2.3403255066       20.7232640755
  C         9.1297541976        3.7237931742       19.9680922329
  S         9.3424139869        6.2650569086       20.1780918400
  H         1.9593628451        7.0261691944       25.8920450232
  H         3.3300717411        6.8819583211       26.7929227188
  C         2.2177520906        5.0824297708       26.7595369349
  N         6.1014362965       -0.7953174426       28.2269028659
  C         5.4147102392       -0.5449998620       30.3988687462
  C         5.0466058486        1.6513462517       31.3663352983
  H         5.3411803057        3.2774148869       30.1023316924
  C         7.8921473078        1.3898566869       20.2441942539
  C        10.3230801148        1.5919851787       20.7294592047
  C         9.3148590612        4.2477848982       18.6813630715
  C         9.4683288588        5.6490885185       18.6602417932
  H         1.5882726907        4.5915082421       26.0543319258
  H         3.0011115904        4.3522322826       26.8882155321
  C         1.5757152561        5.3707865845       28.1325179223
  S         6.0696521694       -2.3120626400       28.8956252956
  N         5.5148433159       -1.9127593383       30.3582602617
  C         5.1063757173        0.2256683121       31.5289663663
  H         4.6467941705        2.3331104531       32.1426954627
  H         7.9623969945        0.6589115005       21.0826707553
  H         8.2368388731        0.8943228061       19.3579623467
  C         6.4663905213        2.0039727541       20.1795005816
  H        10.6051967214        1.2552673672       19.7724947393
  H        10.2354581137        0.7215794522       21.4439492927
  C        11.4880096450        2.4462790996       21.2688289133
  H         9.3531559896        3.5201715134       17.8805264863
  C         9.6944734114        6.5015439541       17.4610665239
  H         0.6564244589        4.7940923447       28.2101799053
  H         1.3116685958        6.4236857400       28.1417524235
  C         2.4815526402        5.1024807760       29.3527282409
  C         4.8794952731       -0.4685244739       32.7908058587
  H         6.3163010120        3.0338373753       20.6407631724
  H         5.7990826237        1.5207821524       20.8904840074
  C         5.9081957494        2.1757352801       18.7426417908
  H        11.2662675420        2.8058890684       22.3086406274
  H        11.7519649103        3.3559126872       20.5601118477
  C        12.8301485784        1.6323276894       21.2595045961
  C         9.7949460394        7.8652133219       17.3509977622
  C         9.9403340305        5.7560696526       16.1983315205
  H         2.8016738948        4.0755502924       29.1645563377
  H         3.3046297165        5.7472113551       29.2557935516
  C         1.7965756897        5.2017377557       30.7045365258
  H         4.9503541614       -1.5694099311       32.7062893733
  C         4.6850153254       -0.0637911398       34.1044292678
  H         6.2538219341        1.3918813399       18.0657910280
  H         6.3643226319        3.0818867310       18.2710550937
  C         4.3017996562        2.1740523856       18.5291174988
  H        12.7110581835        0.7033232599       21.8811173844
  H        13.2303519934        1.3446092784       20.2640499668
  C        13.9225399145        2.5001353185       21.8203485812
  N         9.7000071978        8.7713578856       18.3422238406
  C        10.1363326745        8.4574112860       16.1987898540
  C        10.3142161894        6.3958228130       15.0683909349
  H         9.7701187116        4.6567303417       16.1795123190
  H         0.8305406879        4.6801447698       30.8163747735
  H         2.4558397960        4.7483825347       31.4505040516
  H         1.7007108264        6.2038472251       31.0371119221
  S         4.3856986621        1.5648706490       34.6189777780
  C         4.7946686411       -1.0287210336       35.0882179354
  H         4.0224224800        2.5617787810       19.4599092105
  H         3.9950227277        2.7865185128       17.7275586236
  C         3.8070244690        0.7517970716       18.4828787974
  H        13.5739482037        3.4940354157       22.1921422801
  H        14.5303932133        2.8107462678       21.0155484363
  C        14.7319667653        1.8016440341       22.8674375283
  S         9.9716108944       10.3176409490       17.7736594713
  N        10.1812390512        9.8262679551       16.2393172504
  C        10.5108456906        7.8535880892       15.0518238205
  H        10.1420274865        5.8820573706       14.1537143540
  C         4.1862225073        0.8061841839       36.1761257578
  N         4.4508870726       -0.4706347750       36.2630421033
  O         4.9295622771       -2.2155589681       34.8463115681
  H         4.1584605135        0.0954495951       19.2432056652
  H         4.0873543326        0.1865139553       17.6257534428
  C         2.3182935685        0.5950924009       18.5170637328
  H        14.1849428649        1.3156646734       23.7257332639
  H        15.3531988240        1.0360177126       22.3715069512
  C        15.6651998109        2.8084968767       23.5539891514
  C        10.9214852549        8.5442439796       13.8932603541
  S         3.5730929731        1.6609566793       37.6373061030
  C         4.5969242685       -1.2907130385       37.4721779367
  H         2.0326343186        1.4665481102       18.9706378727
  H         2.0091815410        0.7541067493       17.4958976648
  C         1.7110477210       -0.7448354430       19.0350915945
  H        15.9028503731        2.4810304312       24.5792649368
  H        15.0372296540        3.6898044873       23.7216578102
  C        16.8568649982        3.3887092685       22.7252811237
  H        10.8497326428        9.6638458356       13.9286416271
  C        11.4299834857        8.1535374642       12.6603764684
  H         3.8854216759       -0.9386698498       38.2589870161
  H         4.3701007387       -2.3353291246       37.2958342713
  C         6.0400156788       -1.2554652238       38.1024127604
  H         0.6219710008       -0.6929995319       18.8355464553
  H         1.9371011811       -1.0196575217       20.0450189890
  C         2.2079705566       -1.8863021573       18.0924324053
  H        16.7108280717        3.2176607742       21.6745941691
  H        16.8658585085        4.4361417199       22.8909415821
  C        18.2253111625        2.8631047771       23.1005185953
  S        11.8093752946        6.5815116965       12.1205593060
  C        11.6356500664        9.2548826798       11.7001963744
  H         6.2756913959       -2.2174097585       38.5367640107
  H         6.8148951101       -1.0335159905       37.4233608428
  H         6.1112113287       -0.4122924720       38.8059634567
  H         2.2320230485       -1.6123053600       17.0722458245
  H         1.5041903492       -2.6553716995       18.2647507264
  H         3.2141496789       -2.0945867950       18.3222627672
  H        18.8735731431        3.1451579702       22.2932058872
  H        18.2766799662        1.7768968563       23.1859005250
  H        18.5545349821        3.1913644284       24.1261422385
  C        12.2129675609        7.3841933264       10.6115827011
  N        12.1207841690        8.7464089410       10.6011447497
  O        11.2365790922       10.4115238215       11.7944011520
  S        12.9531191268        6.6353058983        9.1575830791
  C        12.4011087705        9.5777217254        9.4392271583
  H        12.3395490299       10.5760519045        9.7181123606
  H        13.3394291888        9.5493367719        8.9434220961
  C        11.3129219430        9.3901960393        8.3336460634
  H        10.5474881391        8.8566575589        8.7934689661
  H        10.7994101379       10.3563669281        8.0460616664
  H        11.6520108417        8.7978408299        7.4971458060
  H         1.6903943646        1.2440931963       12.3053955577
  C         2.7448461685        1.5435607052       12.4629007316
  H         3.3016810578        0.6588709561       12.3425768089
  C         2.9785617555        2.5777622871       11.3201152705
  C         2.8971269444        2.2056204548       13.8109625617
  C         4.4849351163        2.7327980859       10.9602715252
  H         2.7544927040        3.5071743915       11.6860546481
  H         2.4335023146        2.2826920855       10.4554047172
  H         2.4826802683        1.6089463984       14.6409071886
  H         2.2334527451        3.0332613318       13.8660602060
  H         3.8962846066        2.5745828665       14.0136756798
  C         5.0277697664        1.5260132882       10.0576641798
  H         4.5669974551        3.6823062508       10.4545523178
  H         5.0823358403        2.8586114844       11.8952229937
  C         5.5930421290        1.9831824319        8.6528179472
  H         4.1212970635        0.9133503110        9.8408037817
  H         5.6833143079        0.9062943191       10.5909536924
  C         6.7320769137        2.9398212975        8.8302637061
  H         4.8432445398        2.3881290898        8.0164956500
  H         6.0424973851        1.1629847094        8.0928201464
  C         8.0036584969        2.2073888355        9.2880701064
  H         6.8741133542        3.3944791514        7.8341927107
  H         6.4155495576        3.7078741935        9.4674047348
  C         9.2903614432        3.0599158168        9.3962703543
  H         8.1746301416        1.3951627597        8.6120740278
  H         7.8463291423        1.8262608943       10.2294330031
  C         8.9678182955        4.3614307306       10.0978589087
  C         9.6167226128        3.7824175109        8.1263281454
  C        10.4629680871        2.3132090668       10.1346037196
  C         9.0435102790        5.4700051024        9.2830951802
  C         8.4700033254        4.6671154713       11.3598930245
  C         9.5017971811        5.1070166362        7.9892893920
  C        10.0595523501        3.2173648522        6.9553234514
  H        10.0307838051        1.7429023288       11.0208713452
  H        10.9562823659        1.5771560596        9.5404140307
  C        11.5571368134        3.2394974495       10.6592418136
  S         8.4844304724        6.9205563617        9.9842421354
  C         8.3022009375        6.0145494695       11.5065482520
  H         8.4118148610        3.9119108671       12.1362203472
  C         9.7684973294        5.8036555407        6.8529917141
  H        10.0919375034        2.1544304194        6.9968518963
  C        10.3767098421        3.8570511401        5.8254568829
  H        11.0955167829        3.9721904283       11.2601279524
  H        12.0710453674        3.7656478258        9.6957331648
  C        12.7253974357        2.7696913140       11.5081853335
  C         7.8028805162        6.6169473280       12.7977636091
  C        10.2708314517        5.2172629179        5.7035798317
  H         9.6463599000        6.8566117966        6.9172296896
  C        10.8400821438        3.5369230620        4.5952725738
  H        13.2729298868        3.6340321709       11.6967626766
  H        13.3101305670        2.0075226470       11.0236542499
  C        12.3376491683        2.2327155514       12.8953785749
  C         7.7491423603        7.9875046910       13.0725958073
  C         7.2403752841        5.7070572451       13.8851269150
  C        10.7202794220        5.9206220525        4.4415477249
  C        11.0955029027        4.6129616310        3.7723636387
  S        11.0445148043        2.0264743501        3.8645338833
  H        11.5513806408        1.4762129597       12.5829720672
  H        13.0891949582        1.7479734211       13.4579139513
  C        11.3687040254        3.0521010770       13.8204416084
  N         8.2217398707        8.9618116237       12.3112647521
  C         7.3689508588        8.4218531967       14.3610683518
  C         6.8874797566        6.1271515061       15.1749969542
  H         7.3460589872        4.6134616692       13.8374430668
  C        12.0492821662        6.7758163800        4.6546008469
  C         9.6486043605        6.6961835916        3.6514532790
  C        11.4112715865        4.2053559254        2.4467918335
  C        11.4692637821        2.8301427729        2.3730367110
  H        10.4302913322        3.3835911904       13.4406457089
  H        11.9423612377        4.0131699967       13.9087220057
  C        11.1749877939        2.2913443739       15.1912336766
  S         8.1518197008       10.3193939786       13.1978806159
  N         7.4115729455        9.7799410656       14.4914422112
  C         6.9394602441        7.5644024542       15.4796407687
  H         6.4403161731        5.4179075956       15.8519297868
  H        11.7805116076        7.5082120531        5.3774553390
  H        12.3444926128        7.2720444634        3.7197841832
  C        13.2575338860        5.9213465770        5.2085383058
  H         9.3102652180        7.4868759480        4.3435527436
  H        10.0407557083        7.0803528263        2.7355605596
  C         8.3489815738        5.8523720161        3.2741900819
  H        11.5399885085        4.8697539786        1.6389002328
  C        11.9487936640        2.0275948760        1.1557685790
  H        10.3935181173        2.7563314070       15.7479463224
  H        10.8025271863        1.3055905335       15.0108088537
  C        12.5219181799        1.9683268367       15.9582275177
  C         6.6480793949        8.1643588618       16.6939402784
  H        13.0878842143        5.2298198320        5.9543323676
  H        13.7357418109        5.4822784406        4.3209093823
  C        14.3623406929        6.8265313592        5.8023244342
  H         7.6589630512        5.9455188126        4.0719139147
  H         8.5998299587        4.8507005151        3.0311715538
  C         7.6221896047        6.3898913249        2.0009062353
  C        11.7271464682        0.6060978408        1.0103736326
  C        12.2757679083        2.7881569450       -0.0654998657
  H        13.3702952936        2.4835481128       15.5270049437
  H        12.7138214128        0.8837047888       16.0330207353
  C        12.3957142930        2.5094738671       17.4190149854
  H         6.7956239211        9.2475808327       16.6844140162
  C         6.2731647678        7.7703765505       17.9444405581
  H        13.9673782497        7.4398740479        6.5710338109
  H        14.8123459055        7.4310964555        5.0254819009
  C        15.4328648704        5.9390310569        6.3150279380
  H         7.4600991711        7.4923868955        2.0169818961
  H         8.3250652230        6.2714517414        1.2118687686
  C         6.3166502685        5.6870280207        1.7101128519
  N        11.3829137208       -0.2676732847        2.0120122104
  C        12.1746752505       -0.0933029721       -0.0901070894
  C        12.6185612300        2.0516329628       -1.2221079825
  H        12.5487941531        3.7858980449       -0.1280134090
  H        12.3825408090        3.5772206562       17.3987530377
  H        13.0802490312        2.1826967035       18.1713550420
  H        11.4912848331        2.3062840678       17.8315414539
  S         6.0294141112        6.2097940489       18.5187905580
  C         6.2388185764        8.7654387973       19.0045665049
  H        15.7514852143        6.2194902215        7.3672199705
  H        15.2101604580        4.8806428198        6.5252005497
  C        16.6273940323        5.9227301703        5.4097986386
  H         6.4273633805        4.5857319201        1.9786498995
  H         6.1876545489        5.8590129671        0.6233541021
  C         5.0913390410        6.0878568189        2.5099646314
  S        11.5183654542       -1.8103633938        1.5125006032
  N        12.0074100897       -1.4750629599        0.0172411265
  C        12.5716517691        0.6231813113       -1.2717640103
  H        12.9384060539        2.5776782553       -2.0253674001
  C         5.6989966847        6.9350081137       20.1526262621
  N         5.8187757310        8.2605380791       20.1973322244
  O         6.5685598835        9.9478843341       18.8415996906
  H        16.2359317630        5.6098537779        4.4265720024
  H        17.0430998526        6.9072852293        5.0964375269
  C        17.7517097454        4.9746021357        5.8275156145
  H         4.2580673586        5.3509348445        2.3270991209
  H         5.3590628563        6.0900486999        3.5469087794
  C         4.7693549240        7.6046645981        2.4497435256
  C        12.9735838514       -0.0941088444       -2.4474081439
  S         5.4579569296        6.0151020665       21.7170856296
  C         5.7227943358        9.0135425133       21.4800983338
  H        17.2591080411        4.1091283124        6.1455360450
  H        18.3399190584        4.7210049129        4.9944455219
  C        18.4529418762        5.5989337805        7.0087443546
  H         5.4082148886        8.2912124433        2.9390406617
  H         3.8849907627        7.7503797160        2.9754605499
  C         4.6180722796        8.2493898143        1.0694980239
  H        12.8468853420       -1.1544665179       -2.3556574365
  C        13.4139017981        0.2882671714       -3.7029490246
  H         4.9290192330        8.6386140543       22.1184844134
  H         5.6290095349       10.1152114262       21.3985043441
  C         7.1293754149        8.9394203815       22.1528947612
  H        18.5049014118        4.8415459605        7.7901793991
  H        17.9323912319        6.4406927447        7.4629280777
  C        19.9797707659        5.9129137655        6.6596597242
  H         5.5216768790        8.0161200751        0.4775471192
  H         3.7310739829        7.9150615233        0.5404414202
  C         4.4606759748        9.7680540497        1.2632911119
  S        14.0145437373        1.8147069698       -4.2080667789
  C        13.5672044115       -0.8417210412       -4.6551617346
  H         7.6143862554        9.9145142197       22.1592681758
  H         7.8033662376        8.2469589666       21.6872152543
  H         7.1971697628        8.6027372452       23.2082973290
  H        20.6900973105        6.1086265746        7.4076335646
  H        20.4080503661        5.0237289106        6.1628937202
  H        20.0182436333        6.7864580431        5.9700528039
  H         5.2987185989       10.2396734847        1.8418796485
  H         4.3617152733       10.3481074213        0.3894066306
  H         3.5224667757        9.9699011552        1.7905124787
  C        14.4763337694        0.9934401591       -5.6811822629
  N        14.1112299538       -0.3519084581       -5.7898648586
  O        13.1466538316       -2.0033194994       -4.4551537882
  S        15.3700572225        1.7659512187       -7.0274310330
  C        14.1959606139       -1.2028352725       -6.9448504766
  H        13.9758910352       -2.1773886630       -6.6190412687
  H        15.1720927239       -1.1790948619       -7.3680192648
  C        13.1073752761       -0.8251396901       -7.9926764810
  H        12.3930469339       -0.0878657270       -7.5789571389
  H        12.5413345246       -1.7036439059       -8.3194465695
  H        13.5307206705       -0.2645264810       -8.8566213726
