352
 i =    54200, time =    27100.000, E =       100.4184468599
  H         9.3012271919        4.9287660239       31.1081417686
  C        10.0506576675        5.5262009444       31.6227532248
  H         9.5215788242        6.2803339421       32.2660962991
  C        10.9045165290        6.1827923113       30.6548184266
  C        10.9651419941        4.7398307909       32.6139186571
  C        11.2792480208        5.2837273818       29.5604821777
  H        10.2953144702        7.0766037227       30.3574750783
  H        11.8125662696        6.5345118109       31.2964443748
  H        12.0632241705        4.9222708816       32.7051088402
  H        10.6587003564        5.1267001634       33.5802000806
  H        10.6588026117        3.7116028881       32.5409417713
  C        10.1196919919        5.0463945471       28.6526044455
  H        11.6342239310        4.4525313604       30.0107672074
  H        12.0993616389        5.7442151664       28.9556260801
  C        10.7316218917        4.8531815574       27.2256394024
  H         9.5596384033        4.1687058203       28.9355658176
  H         9.5031112428        5.9413142963       28.6281020957
  C         9.6905644518        4.4712486595       26.1883332041
  H        11.5371762156        4.0799954011       27.3685504239
  H        11.2789886208        5.7004672577       26.8311622233
  C         8.5178545530        5.3789654951       25.8612478689
  H        10.3334295963        4.1508696865       25.3075634153
  H         9.2657692250        3.5240566855       26.5714124985
  C         7.2378811143        4.7061577089       25.3196238394
  H         8.1913777521        5.8348210342       26.7957647016
  H         8.7913133467        6.2415744339       25.1646540867
  C         6.8905358255        3.4617507358       26.0272597280
  C         7.5641848035        3.9705565377       24.1093423217
  C         6.0669404943        5.7219556251       25.3081680851
  C         7.0549455075        2.3110436365       25.2837792790
  C         6.3991874623        3.1344819401       27.3209308155
  C         7.4479822584        2.6237657539       24.0117996939
  C         7.9384623174        4.5605278535       22.9359157667
  H         6.3958690435        6.6262287176       24.6972721448
  H         5.9525415450        6.1167602510       26.3459059308
  C         4.7438142507        5.1004982287       24.7620513060
  S         6.8107423323        0.7995736435       26.1680050063
  C         6.2923359602        1.7716296101       27.5205633887
  H         6.3202291579        3.8996555666       27.9909172025
  C         7.8056446300        1.9314287814       22.8825040701
  H         8.1608206438        5.6387764522       22.9449144391
  C         8.2757537829        3.8680902016       21.8098361162
  H         4.8140570273        4.6346667060       23.8237008674
  H         4.3825605540        4.2880776433       25.3595601145
  C         3.5802618770        6.0730864999       24.8245328124
  C         5.8587877099        1.0940206189       28.7897246360
  C         8.3123895167        2.5436107806       21.7477876953
  H         7.7151290485        0.8934796023       22.8447187340
  C         8.7639234634        4.2665592806       20.6037233422
  H         2.9604748461        5.6273679398       24.0665180469
  H         3.7858208933        7.0130063398       24.2922515777
  C         3.0167845809        6.2197209631       26.1643257431
  C         5.7823259479       -0.3103702365       28.9716576579
  C         5.4009834519        1.9137035277       29.9609066348
  C         8.7486532664        1.8555413555       20.4954694458
  C         8.9844882357        3.1789818890       19.7307179578
  S         8.9319312428        5.7898295607       19.8479137234
  H         2.4539670367        7.1734744064       26.1299872105
  H         3.7236709340        6.4726939106       26.8888729529
  C         2.1573418300        5.0324505754       26.7112178885
  N         6.1504565883       -1.3499083091       28.1018545696
  C         5.4973267216       -0.8150054504       30.2768612216
  C         5.1320007667        1.4183328457       31.2309936780
  H         5.3477827059        2.9415414732       29.8501282581
  C         7.5779511381        1.2288896584       19.7156111986
  C         9.9954950832        0.9117803250       20.6402361207
  C         9.4896014910        3.6466338148       18.4964210538
  C         9.3841079652        5.0537241744       18.3681057840
  H         1.2353810109        4.8518809587       26.1266853052
  H         2.7197410226        4.1196997460       26.5321384329
  C         1.5937247210        5.3192919821       28.1359427428
  S         6.1051536944       -2.8125736873       28.8420863319
  N         5.7308288028       -2.1731315899       30.3182924043
  C         5.1543299164       -0.0496180188       31.4486331778
  H         4.8491173784        2.1412744900       31.9721829659
  H         7.2887654208        0.2575468295       20.1579745087
  H         7.9255449599        1.0453925761       18.6725425464
  C         6.2979154948        2.0404180370       19.6586259850
  H        10.2559202143        0.3993434310       19.6996513080
  H         9.7740729055        0.0650032034       21.3417696935
  C        11.2528542793        1.6753561983       21.0502515808
  H         9.6924086329        2.9017038358       17.7535453457
  C         9.7332616633        5.8005485978       17.1364666715
  H         0.6937090355        4.6923998524       28.3040203891
  H         1.2401036420        6.3733360966       28.1869592371
  C         2.5945098038        5.2182731941       29.2375384992
  C         4.9085689632       -0.7447835343       32.6468381284
  H         6.5342132104        3.0933725401       19.7891307970
  H         5.6414010797        1.9067085364       20.4946944051
  C         5.5995726009        2.1187730569       18.2968592219
  H        10.9256188800        2.3421356511       21.8352028392
  H        11.4669064717        2.3248686840       20.1910251476
  C        12.3796200032        0.8662986627       21.4567934567
  C         9.9099460823        7.2052414828       17.0233787700
  C        10.0140945531        5.0280009837       15.9075221330
  H         3.0665345150        4.2840619722       29.3471627823
  H         3.3889987326        5.9805598876       29.1181179819
  C         1.9991642242        5.4282475834       30.7010005566
  H         4.9409020991       -1.8486182537       32.5403774253
  C         4.5382608309       -0.2546491834       33.8957508725
  H         5.7084819212        1.1624499748       17.8443001180
  H         6.2673774718        2.7650458889       17.6278313189
  C         4.1116956522        2.5918856303       18.3107789469
  H        12.0490911207        0.2863583433       22.3062068193
  H        12.6066167385        0.1505779805       20.6485297194
  C        13.6135065285        1.7109977783       21.6564578796
  N         9.7543844862        8.1313171279       18.0590293229
  C        10.1356343563        7.8084131918       15.8071529318
  C        10.3652472400        5.6429193838       14.7557911352
  H         9.6786320545        4.0359969932       15.7652936212
  H         2.6572395094        5.0337369362       31.4951776766
  H         1.9678199398        6.4503797575       30.8038574752
  H         0.9864703270        4.9666985490       30.8456864468
  S         4.2722501604        1.3767217253       34.4361337747
  C         4.6043258431       -1.2288614121       35.0618795909
  H         4.0426653433        3.4423469352       18.9969794683
  H         3.8697937433        2.9312198782       17.2974893503
  C         3.2210881529        1.3989110723       18.8269439431
  H        13.2401334782        2.4013484222       22.3502418011
  H        13.7633638981        2.3012002958       20.7618598219
  C        14.8398838053        0.9369965482       22.1921378801
  S         9.8367640183        9.6301901569       17.4124777232
  N        10.1254111818        9.2085727858       15.8476612138
  C        10.4434010564        7.1224532750       14.6337971695
  H        10.6048977480        5.0135923718       13.8588830364
  C         4.1991092861        0.6632520559       36.0989168322
  N         4.2632890079       -0.6601651526       36.2090981233
  O         4.9307660083       -2.3629506297       34.9375205726
  H         2.2411189925        1.7758898444       19.1485904949
  H         3.7587342598        0.8575186938       19.6716118643
  C         2.9705761819        0.2987618311       17.8038804930
  H        14.6070662049        0.5875808370       23.1998223067
  H        15.2418391152        0.1480449445       21.6099003451
  C        15.9698604381        1.9687815398       22.3085181945
  C        10.8902261441        7.9081629720       13.4974318762
  S         3.7006809968        1.6110800601       37.5209014048
  C         4.4884254894       -1.4659363222       37.3794486432
  H         2.5074258639        0.5768232674       16.9065458341
  H         3.9688098694       -0.1348923036       17.5366216307
  C         1.9943249357       -0.8095057287       18.3800180654
  H        15.6550034596        2.7843214262       22.9320194177
  H        16.1324481142        2.2946927130       21.3289846321
  C        17.2152853629        1.2632474745       22.8695836224
  H        11.0092075799        8.9115766121       13.6151694444
  C        11.1255475572        7.5268941740       12.2523152012
  H         3.9441363727       -1.1599718511       38.2115795532
  H         4.1345090666       -2.4463921103       37.1273601057
  C         5.9684249232       -1.5501740137       37.8706657355
  H         1.0619143234       -0.4997717339       18.5823170478
  H         2.5205339595       -1.3034782772       19.1562701892
  C         1.7687578048       -1.8379595597       17.2405736393
  H        17.3612269485        0.3639220092       22.3290392851
  H        17.9908690644        1.9322470376       22.5266179563
  C        17.2707548050        1.1205175095       24.4182266134
  S        11.2920716053        5.9222386544       11.6820907404
  C        11.2743224852        8.6458697748       11.2647550743
  H         6.0647572815       -2.0409874597       38.8515512435
  H         6.7454330049       -2.0810104891       37.2223804951
  H         6.3339516095       -0.5969705062       38.1463183374
  H         0.9893925686       -2.6115816476       17.4316926370
  H         2.7029250731       -2.3843918056       17.1042769837
  H         1.4413354813       -1.3809868015       16.2870963471
  H        18.2398225940        1.1044037146       24.7821207665
  H        16.8461959176        0.1669925038       24.7718003119
  H        16.7743671451        2.0035955566       24.8634994648
  C        11.7719122759        6.7620296427       10.2112185312
  N        11.8399899538        8.0998559160       10.1754019397
  O        10.8651164872        9.7319691196       11.4126641949
  S        12.4643990725        6.0107403204        8.8176830199
  C        12.0796492393        8.9961576053        8.9820372038
  H        12.1181064489       10.0505281513        9.3179644131
  H        13.0042798894        8.6624283189        8.4502170720
  C        10.7826083550        9.0972706565        8.0616692842
  H        10.2683592084        8.1917893166        8.0748648324
  H        10.0724722060        9.7966729034        8.4482556181
  H        10.9904228174        9.2514872622        7.0266755005
  H         4.0002784134        1.6730841434       12.5820037027
  C         3.3228315732        2.4572337818       12.7914818781
  H         3.8979099337        3.3515041795       13.1037448306
  C         2.5402986807        2.6969816575       11.4856487320
  C         2.5784020399        2.1348914989       14.0473797886
  C         3.4634968718        2.8637921383       10.2952974310
  H         2.0479458439        3.6391193356       11.6412384956
  H         1.9664502751        1.7566658363       11.3172987713
  H         1.7276599065        2.7052745113       14.2694368072
  H         3.2563357133        2.2597886236       14.8644375217
  H         2.2748553312        1.0814628366       14.0135098080
  C         4.0319997427        1.5798690695        9.7795014053
  H         2.8735421532        3.1599442805        9.3616095825
  H         4.2253375053        3.5899052791       10.5534317610
  C         4.8095463746        1.6107230050        8.4199596391
  H         3.1795827526        0.9289551578        9.6448259469
  H         4.6343099994        1.2045520604       10.5880102164
  C         6.1719502721        2.4439152311        8.5609541136
  H         4.1109495833        2.1614667326        7.7546720045
  H         4.9238308658        0.6019858421        8.0207148526
  C         7.2947502188        1.6867896375        9.0376380707
  H         6.4203045739        2.8372354370        7.5905312407
  H         5.9504743355        3.2901772816        9.1951986057
  C         8.5370961414        2.5650119227        9.1910317379
  H         7.4685591335        0.8187485305        8.4361555714
  H         6.9315939045        1.3823547244        9.9615645143
  C         8.1609012293        3.9250166596        9.7619341641
  C         9.1175857095        3.1898287181        7.9133117149
  C         9.6162037089        1.8678141029        9.9426638710
  C         8.5453702642        5.0119191610        9.0103681331
  C         7.5783301144        4.3231087154       10.9706576430
  C         9.2143890866        4.5104172263        7.8779842862
  C         9.8030693322        2.5134153328        6.8501080925
  H         9.1671986334        1.4828348028       10.8736048523
  H        10.0904219626        1.0014459281        9.4944475173
  C        10.8961124162        2.7611592360       10.2704435334
  S         8.1062185494        6.5332785011        9.7598385535
  C         7.4533209454        5.6787051027       11.0877036698
  H         7.4559013974        3.5419786028       11.6731700666
  C         9.7521283818        5.0947699732        6.7520044584
  H         9.7544732926        1.3982406948        6.8162986632
  C        10.2813523759        3.1590381637        5.7118649624
  H        10.5301883487        3.7303621952       10.5864456788
  H        11.4384349374        2.9157074422        9.3822268354
  C        11.9234561364        2.1784328481       11.3129431801
  C         7.1870196106        6.3220353298       12.3945892938
  C        10.2866969825        4.4743202532        5.5996430942
  H         9.8634272834        6.2066584877        6.6990776290
  C        10.7921649344        2.7533252527        4.4832183074
  H        12.7862945100        2.8205438634       11.2570105118
  H        12.2738539348        1.3210071863       10.8760371111
  C        11.5726489737        2.0046744281       12.7911834228
  C         7.3243213986        7.7217407575       12.7089862560
  C         6.8050862834        5.4664520109       13.5219067839
  C        10.7459967602        5.1166080149        4.3200054892
  C        11.0045361937        3.8276004474        3.6530690742
  S        11.1123769496        1.2532744253        3.7323357286
  H        11.1479035432        2.9337509371       13.2241669974
  H        10.7008262325        1.2947967332       12.7277399384
  C        12.5948980624        1.5431936809       13.7928117306
  N         7.6767773226        8.6739816711       11.7778427716
  C         7.1792554120        8.2648785122       13.9390469930
  C         6.6695510817        6.0625144184       14.7847555507
  H         6.4260937830        4.4301859347       13.4296220434
  C        12.0176636022        5.9100459980        4.4959817928
  C         9.5970691561        5.9231117623        3.6007168702
  C        11.4866928808        3.3590244408        2.3961463749
  C        11.4895386772        2.0411852098        2.2011661975
  H        13.4362237998        2.1381876383       13.6806037520
  H        12.9573670142        0.4940437344       13.6651145594
  C        12.0549081854        1.7005261828       15.1754324501
  S         7.7274886887       10.1142922077       12.5115976110
  N         7.4334207210        9.6313695380       14.0125053921
  C         6.8491198115        7.4941146139       15.0660254334
  H         6.4214324876        5.4046746050       15.5987421509
  H        11.8685990119        6.8155706341        5.1079477540
  H        12.2254851217        6.2499737824        3.4657387021
  C        13.2525579097        5.2442545983        5.0074140904
  H         9.2364561309        6.7321460083        4.1899628343
  H         9.9788280948        6.2857308983        2.6359048457
  C         8.4260881092        5.0974079794        3.1499977128
  H        11.7359294738        4.1477724555        1.7225627167
  C        11.8343034658        1.2650156185        1.0042278084
  H        11.7810907819        2.7265892947       15.3340280805
  H        11.0809232659        1.1582189865       15.2891884601
  C        13.1279207754        1.2279400807       16.2032205565
  C         6.7645859290        8.1157936924       16.3062937409
  H        12.9925285682        4.8068699981        6.0240590801
  H        13.3869327373        4.2957828477        4.4531683507
  C        14.5348888051        6.1130137696        5.0374178293
  H         7.9607179268        4.4871543748        3.9639735663
  H         8.8294566288        4.4107147791        2.3702028775
  C         7.2985627370        5.8514868487        2.4509724673
  C        11.9103483158       -0.1405866089        0.8450267835
  C        12.0670162831        2.0480622550       -0.2283116056
  H        14.0340486676        1.8267840361       16.1043352603
  H        13.4531804147        0.1729181086       16.1617228854
  C        12.5978764507        1.3647674971       17.5934509179
  H         7.1586565266        9.1309042323       16.2511634595
  C         6.4353284731        7.6416514470       17.5659160215
  H        14.2926918628        6.7634934238        5.8791835317
  H        14.7474330351        6.7187956083        4.1511789058
  C        15.7431031299        5.2122379545        5.3023092795
  H         7.0493815629        6.6722552359        3.1199806539
  H         7.7850164368        6.2546122167        1.5044973117
  C         6.1002299961        5.0023049591        2.1270538437
  N        11.5310366474       -1.1046384186        1.8371083793
  C        12.3143070622       -0.7359717028       -0.3391005191
  C        12.4508622184        1.4497666903       -1.4163716915
  H        11.8800158949        3.1222767175       -0.1618771829
  H        12.7154579535        2.4219428881       17.9451561197
  H        13.0619811694        0.6068727123       18.2482626796
  H        11.5079285845        1.1584910593       17.7664478844
  S         6.0540905482        6.0141247823       17.9459720415
  C         6.4047866102        8.6139176921       18.6643792916
  H        15.6052645839        4.3297529888        4.7494199625
  H        16.6366153770        5.7194565632        4.9390356022
  C        15.8740312413        4.9757869509        6.8698433669
  H         5.5200401741        4.8278220118        3.0043042809
  H         6.3739631829        4.0265266373        1.7069995276
  C         5.2206745033        5.7131317793        1.1025769829
  S        11.7083454758       -2.5573811848        1.1591753327
  N        12.2444464542       -2.0658770132       -0.3244871180
  C        12.5370304209       -0.0119681124       -1.5092187740
  H        12.4490429262        2.0153243769       -2.3432124927
  C         5.7297359851        6.7064978239       19.5822105224
  N         5.9928764886        8.0110669359       19.8039309261
  O         6.8680935754        9.7942832177       18.5601650234
  H        15.7204392571        5.8542526875        7.4325330100
  H        15.2030885374        4.1714080768        7.1192897070
  C        17.2660448712        4.4429982159        7.2173291658
  H         5.7400433377        5.8794660181        0.0865685292
  H         4.3269789307        5.0819411028        0.7981971127
  C         4.5809233829        6.9407599791        1.5955148572
  C        12.8554160899       -0.7049096749       -2.6893673282
  S         5.2850075899        5.8411492644       21.0350993778
  C         5.9301056156        8.7650576645       21.0780693556
  H        17.2384906712        4.0942844403        8.2638580821
  H        17.3983085315        3.5589033907        6.6040930476
  C        18.4568215254        5.4760935478        7.0820580397
  H         4.4760745212        6.9856970227        2.7149474127
  H         3.5450305854        6.7860848062        1.3343599390
  C         5.0168283445        8.2455566328        0.8802822816
  H        12.6058800186       -1.7681236965       -2.6577673734
  C        13.3801173308       -0.2931755660       -3.8957978014
  H         5.1091704433        8.3547774850       21.6309970889
  H         5.8834487685        9.8510023080       21.0927809558
  C         7.2896300624        8.5589784153       21.7306171538
  H        19.0125371154        5.5492483065        7.9535258393
  H        17.9698722073        6.4614901599        6.9585766651
  C        19.4030345183        5.3172745931        5.9172258323
  H         6.1253196409        8.2965421809        0.8537407032
  H         4.5220001252        8.3111288070       -0.1146653637
  C         4.6130091898        9.5155702783        1.6234414248
  S        14.1441084498        1.2080716368       -4.2043716141
  C        13.4829882629       -1.3206183300       -5.0232505094
  H         8.0854251284        8.6967703438       21.0438441619
  H         7.2328850368        7.5232405360       22.1025568342
  H         7.4864281808        9.1727976143       22.6313665891
  H        19.2819358495        6.1737581336        5.2340892050
  H        20.3688923769        5.2426277602        6.2652798173
  H        19.1714297012        4.4792150916        5.2828157406
  H         5.1425909543        9.4914702376        2.6065425929
  H         4.9763132690       10.3778782232        1.0286627299
  H         3.5406257551        9.7101607381        1.7882256169
  C        14.3646222497        0.6025039317       -5.8509901404
  N        14.0986761629       -0.7067576009       -6.0427296977
  O        13.0231514106       -2.4607363282       -4.9580118715
  S        14.8952260778        1.5962303829       -7.1863434041
  C        14.2284145184       -1.4353475975       -7.2844426347
  H        14.4703011114       -2.5366969804       -7.1500007126
  H        15.1510075219       -1.0936533832       -7.8203296516
  C        12.9860297322       -1.4473162571       -8.1649127776
  H        12.8862302042       -0.6132120185       -8.7801872372
  H        12.1577844046       -1.7037052014       -7.4970798562
  H        13.0428174481       -2.2951849726       -8.8878675178
