352
 i =    94200, time =    47100.000, E =        99.8933553197
  H        11.3318918392        7.5915876335       32.8427574323
  C        11.2504701278        6.5023574438       32.8422349940
  H        12.2380793433        6.1731011381       32.6682405916
  C        10.4555975640        5.9372894566       31.5870760807
  C        10.7784814528        6.1039017331       34.2261174423
  C        11.1317602782        6.3130320141       30.2694518422
  H        10.4834075373        4.8985117394       31.4818104051
  H         9.3767206394        6.2369717237       31.6356381947
  H        11.3120838751        6.6341314823       35.0039189834
  H         9.6783081598        6.1562691394       34.4497227426
  H        10.9454223342        5.0442968702       34.4464017436
  C        10.1933663439        6.1531571227       29.0963162836
  H        11.9835946041        5.6304069332       30.0630312455
  H        11.6556120651        7.2812252680       30.4142414132
  C        10.7628712082        5.7451772264       27.6819146884
  H         9.5446786821        5.3678562335       29.4477254952
  H         9.5688337242        7.0119259590       29.2396751322
  C         9.7200556668        5.1898542448       26.6699716284
  H        11.5753491791        5.0784263003       27.7894578660
  H        11.1449841531        6.5705028116       27.0749126629
  C         8.5651678820        6.1467763372       26.4735101272
  H        10.2431471427        5.1531186949       25.7201094461
  H         9.5410223294        4.2042868159       27.1069826923
  C         7.4098161610        5.4131187685       25.7716199050
  H         8.2537201114        6.6404767098       27.3659440063
  H         8.9658414265        6.8382189890       25.7786766721
  C         7.0442805872        4.0962468629       26.4365908484
  C         7.9036054443        4.6578218309       24.6361787252
  C         6.1547791806        6.2434206148       25.4774851086
  C         7.4277826786        2.9388211204       25.7840915418
  C         6.5697048767        3.6608866357       27.7306462941
  C         7.9876021929        3.3261283251       24.5904672051
  C         8.4720178731        5.2317586210       23.4509692832
  H         6.3409044686        7.0516958125       24.7064111525
  H         5.8726663502        6.7621470482       26.4513385397
  C         4.9082948865        5.4116875970       25.1290461163
  S         7.0474632180        1.4670831008       26.5320566419
  C         6.4666464832        2.3239901207       27.8948016549
  H         6.3733076329        4.3416377065       28.5557228998
  C         8.3979769211        2.6040800904       23.5049993698
  H         8.6493754823        6.2416752383       23.3097909946
  C         8.7825834289        4.4876961903       22.3199801767
  H         5.0138919337        4.8564846122       24.2287016864
  H         4.7998449428        4.6964342811       25.9548423358
  C         3.5708484418        6.2217600064       24.8991621346
  C         6.0285939610        1.6091400207       29.1339395087
  C         8.7546252661        3.1102603226       22.2791955659
  H         8.2374868959        1.5167350416       23.5519574230
  C         9.1078116275        4.8326781902       21.0518905234
  H         2.8879586469        5.8008946950       24.1356620905
  H         3.7730154550        7.1631350753       24.4136997918
  C         2.8436855840        6.4463092240       26.2602306892
  C         6.0100960799        0.1876309895       29.3536087694
  C         5.7041672210        2.4733840338       30.3059967291
  C         9.1395516038        2.3988845421       20.9953916129
  C         9.3715111852        3.7525663744       20.2846929948
  S         9.1920664361        6.2397208005       20.1291844077
  H         2.1157963113        7.2352884049       26.1937397370
  H         3.5578287265        6.7092370367       27.0397683971
  C         2.1177683933        5.1744930544       26.7647727014
  N         6.2656309254       -0.7268084887       28.3751885321
  C         5.5127584222       -0.4081215593       30.4824561248
  C         5.3724199812        1.8658502426       31.5431583811
  H         5.5921869283        3.5403741293       30.1853414950
  C         8.0136725865        1.5750209743       20.3350280614
  C        10.4236436463        1.5433661507       21.2197226216
  C         9.9088788375        3.9967483677       19.0037441719
  C         9.7591838646        5.3552182779       18.7721586881
  H         1.2034571999        4.9183596665       26.1584935629
  H         2.7714908152        4.2941121658       26.7147290566
  C         1.6460535145        5.3789895292       28.1907661575
  S         6.0442103678       -2.2291423414       28.9488910074
  N         5.5987847890       -1.7775710952       30.4532894066
  C         5.1855481682        0.3653822582       31.6280332368
  H         5.1331527391        2.5111171998       32.4296773147
  H         7.9631885711        0.6921442475       20.8615854209
  H         8.3955360099        1.3495067097       19.3576810937
  C         6.6069054894        2.3365967595       20.1063115281
  H        10.5623539802        0.8732978124       20.3408525987
  H        10.2574682172        0.8312051758       22.0858237851
  C        11.7043180166        2.3960815895       21.5155450850
  H        10.1056565143        3.1665476486       18.3354174333
  C        10.0602674665        6.0355676237       17.4720763986
  H         1.0101818693        4.5384584782       28.4454574349
  H         1.2011895938        6.3169315763       28.4089089602
  C         2.7852814201        5.3516739443       29.1824133958
  C         4.9841096910       -0.3477034226       32.8623318644
  H         6.7105487090        3.4523602818       19.9974173683
  H         6.1689268232        2.0721276508       21.0646801855
  C         5.7840348594        1.8535592712       18.9676951956
  H        11.5942402637        3.1810722779       22.1530920129
  H        12.0110058352        2.8605695069       20.5868553256
  C        12.8415467632        1.5984472926       22.1179760323
  C         9.9332038980        7.4859757324       17.2283632667
  C        10.3283767656        5.2616326224       16.2480066831
  H         3.3885439335        4.5156632464       28.9957142371
  H         3.3433085492        6.2856609424       29.0950989814
  C         2.3239544281        5.1758288263       30.6194671055
  H         5.3391456686       -1.3238522735       32.8933021058
  C         4.7092319196        0.0870128141       34.1312540671
  H         5.4785534088        0.7453844426       19.0195500509
  H         6.3494531878        2.0259031167       18.0437068709
  C         4.5819611866        2.7716907436       18.9497739420
  H        12.5901579801        0.9761506426       22.9294646797
  H        12.9544622873        0.8804135080       21.2571397741
  C        14.1712155911        2.3760180778       22.1511965348
  N         9.6488678754        8.4126811214       18.2385538688
  C        10.2822232813        8.1248594829       16.0520849488
  C        10.6510542501        5.8993640205       15.0739581099
  H        10.4524543676        4.1665080241       16.2942049502
  H         1.3395568677        4.6146856528       30.6996837809
  H         3.1721264721        4.7491591274       31.2484616799
  H         2.3191075596        6.1743453675       31.0795897377
  S         4.5042789906        1.7505513015       34.6343685481
  C         4.5160692676       -0.8672152638       35.2523168053
  H         4.5121083890        3.0937321202       19.9614704503
  H         4.7778323574        3.6625814647       18.3227226046
  C         3.3842539067        2.1247705029       18.3324456571
  H        14.0349734286        3.4755647243       22.2658445956
  H        14.7105315338        2.3230823921       21.2161222288
  C        15.0040154000        1.8381748526       23.2763571804
  S        10.0051923658        9.8610687900       17.6359848247
  N        10.3484822423        9.4738045955       16.1472512808
  C        10.6633383788        7.3783223443       14.9268743805
  H        10.8365420996        5.2322900344       14.2797337469
  C         4.1627185342        1.1574174215       36.2571636400
  N         4.2266283812       -0.2032896164       36.3635782208
  O         4.5765118621       -2.1006026662       35.1899211164
  H         3.6537280944        1.9680028625       17.2453957389
  H         2.6675440821        2.9206466783       18.2090683436
  C         2.7364462540        0.9826135278       19.1415026689
  H        14.4050412870        1.4390141968       24.0206577340
  H        15.3848277888        0.8872057559       22.9094811404
  C        16.1397828350        2.7923518023       23.7862344820
  C        10.9624737246        8.0966215359       13.6974885602
  S         3.8326332773        2.0814151862       37.7589696937
  C         4.0752100856       -0.9712692904       37.6491440783
  H         3.1821011194        0.8924946108       20.1170461806
  H         1.7021809300        1.2505549809       19.3291510348
  C         2.7491442332       -0.2820505724       18.2742777860
  H        16.4995114455        2.4387467031       24.7614338268
  H        15.7490134499        3.7843274356       23.9884833968
  C        17.2971238846        2.8481162655       22.7656346508
  H        10.5267038561        9.0903116662       13.6795229535
  C        11.5725473512        7.7683460362       12.5227932177
  H         3.5159698954       -0.3224971117       38.3078800897
  H         3.4379008394       -1.9077014200       37.6029947828
  C         5.4749914284       -1.3508349715       38.2399611725
  H         3.8012078993       -0.5052118084       18.1730747282
  H         2.4646496955        0.0160008828       17.2913492393
  C         1.9526094591       -1.4844313146       18.8985225967
  H        17.0557769786        2.8742825313       21.6840648643
  H        17.9397861327        3.7278899820       22.8665599059
  C        18.2208868170        1.6344840979       22.9510843352
  S        12.4409151272        6.2315681425       12.1963772521
  C        11.5741853638        8.6534347966       11.4122668222
  H         5.8784088566       -2.3458967618       37.8718329454
  H         6.2090398683       -0.6219164030       37.8909682621
  H         5.5181820061       -1.3397504014       39.3652278539
  H         2.4327375647       -1.6178550193       19.9021998349
  H         2.0612846744       -2.4226022128       18.3563492037
  H         0.9121383871       -1.1991533883       18.8531501790
  H        19.1220818393        1.8030098860       22.3759853402
  H        17.8355326366        0.7434052357       22.5120172333
  H        18.4801821249        1.3822393745       23.9673107149
  C        12.6136328202        6.8617572314       10.5466777103
  N        12.2866075182        8.1433428904       10.4076715557
  O        11.0371628306        9.7768326524       11.4389831308
  S        13.0428634869        6.0599440052        9.0463603101
  C        12.3376009036        8.9023368565        9.2075808774
  H        12.1925851885        9.9543123646        9.4308084594
  H        13.2945378633        8.8698893536        8.7245540680
  C        11.1892797862        8.5007804511        8.2866696305
  H        10.5919791047        7.7481393402        8.7441460582
  H        10.5648062845        9.3852373688        7.9988141131
  H        11.4817705954        8.0025499453        7.3726966698
  H         4.5521887429        1.6379024648       12.4530537783
  C         3.9176140183        2.4741803106       12.6000562615
  H         4.4505952994        3.3801591387       12.6394804262
  C         2.9938355679        2.5446814634       11.3859235594
  C         3.1456726543        2.3174267104       13.8838961545
  C         3.7174565773        2.6837945960       10.0363246059
  H         2.3580786657        3.5154243455       11.4079131443
  H         2.1988054654        1.8025311886       11.3563311600
  H         2.4306110012        3.1776028591       13.8828097679
  H         3.8543925247        2.4831908154       14.7120330498
  H         2.5313326838        1.4190408215       14.0140078291
  C         4.6230984673        1.5318251041        9.6027234502
  H         2.9067605257        2.6997047814        9.3414617711
  H         4.2339136384        3.7266687610       10.0210843498
  C         5.5284327921        1.8200623287        8.4031967166
  H         4.0235778726        0.6922407581        9.4227244246
  H         5.1305502345        1.2383946457       10.5121237083
  C         6.6972779743        2.7434442923        8.8180710927
  H         4.9153851071        2.3612868734        7.6553063037
  H         5.8804587145        0.9543549264        7.8386524997
  C         7.8731992049        1.8894051869        9.3391092386
  H         6.8468094305        3.3430322990        7.9215916407
  H         6.3778379207        3.4847570618        9.5249622884
  C         9.1138069686        2.8037125030        9.5100297472
  H         8.1558188904        1.1553318408        8.5976920041
  H         7.6437043694        1.2993285800       10.1896945594
  C         8.8470547885        4.1956127341       10.1851282137
  C         9.5567710572        3.5088238929        8.2864093561
  C        10.2362988527        2.0626791741       10.2271999933
  C         9.0768625131        5.2949261094        9.3934918294
  C         8.2738350359        4.5403112410       11.4094900617
  C         9.5081071206        4.8682881069        8.1712023860
  C         9.9083940801        2.8432306005        7.1276807891
  H         9.8877026736        1.3910796420       11.0028874267
  H        10.6203791958        1.3797333784        9.4932917164
  C        11.3599247418        2.8815493426       10.8787078802
  S         8.7119888329        6.8366278926       10.1116508007
  C         8.1711314395        5.9297869454       11.4872331323
  H         7.9406521920        3.7864856813       12.0665261813
  C         9.7502641746        5.4398600727        6.9829616818
  H        10.0989406949        1.7827431598        7.1364706935
  C        10.1940778261        3.5167322791        5.9617662126
  H        11.0986941676        3.4939582491       11.7743381587
  H        11.7858107804        3.6295981151       10.1220080031
  C        12.4522764386        1.8703039582       11.2060696155
  C         7.5914828482        6.6195638915       12.6775804117
  C        10.1557315358        4.8629269070        5.8166683065
  H         9.5395902353        6.5130784688        6.9744689023
  C        10.5865785741        3.1438659860        4.6658386563
  H        13.2365453736        2.1837624530       10.5095651863
  H        12.2210091535        0.8753078124       10.8886597581
  C        12.9480400890        1.9673518833       12.6622745345
  C         7.6535261471        7.9552334542       12.9721162342
  C         7.1883051008        5.7276399927       13.7546912895
  C        10.6040760615        5.5901488544        4.5749110329
  C        10.7673187046        4.2276328287        3.8634188330
  S        10.9648078034        1.6153052223        3.9205037517
  H        13.9153977074        1.5486990080       12.9908602243
  H        13.2263034924        2.9570654560       12.9124242392
  C        11.9352036754        1.4689296161       13.7105489242
  N         8.0121689778        8.9379376672       12.0261674018
  C         7.3062450443        8.5005774100       14.1854269711
  C         6.7247868929        6.2739090239       14.9689836545
  H         7.0895836491        4.6446112284       13.6561655706
  C        12.0010501997        6.3402569106        4.6404238568
  C         9.4817034011        6.4090432937        3.9723760194
  C        11.0669570263        3.8020538505        2.5090720491
  C        11.2986484095        2.4441396203        2.3896578162
  H        12.2144611085        0.5406161866       14.0760684075
  H        10.9065779820        1.5131442230       13.4265292326
  C        12.1629209521        2.3388080151       14.9560988747
  S         7.7647502146       10.4217531134       12.7190704931
  N         7.3725287132        9.8840307326       14.2077481649
  C         6.8383293989        7.7373397240       15.2477928161
  H         6.3863504851        5.6269360611       15.7010780990
  H        11.8475399662        7.3139954499        5.1938699678
  H        12.2332900692        6.5964340092        3.6081354077
  C        13.2227700407        5.5360082267        5.1347942348
  H         9.0887033151        6.9936302276        4.8068243985
  H         9.8412899383        7.1456239289        3.2168752359
  C         8.3320915073        5.6155935400        3.2740182133
  H        11.3530714735        4.5853448889        1.7774540607
  C        11.7342789453        1.8158342949        1.1337184544
  H        12.3052465835        3.4326521133       14.6382855973
  H        11.1624836678        2.4418166320       15.3908880868
  C        13.1008427765        1.7981178898       16.0915508228
  C         6.5252631088        8.4512851221       16.4489806967
  H        12.8288779018        4.8595173759        5.9663847182
  H        13.5775192511        4.9042830609        4.3298145006
  C        14.4301506629        6.4599461229        5.6060923855
  H         7.8075603492        5.0184538347        3.9909663206
  H         8.7254645590        4.9742429030        2.4545339384
  C         7.2173926087        6.5727676405        2.7369441603
  C        11.8855610319        0.4276443458        0.9555092228
  C        11.9685319376        2.6481895255       -0.0564617014
  H        14.1134092422        1.9698144771       15.7164785544
  H        13.0855684096        0.7021512413       16.0289105566
  C        12.7714816944        2.2847115659       17.5421790368
  H         6.8048781003        9.5013568853       16.5823252572
  C         6.3081849640        7.9949988355       17.7280043055
  H        14.1355807923        7.1337352247        6.4246558466
  H        14.8108002927        7.0390852424        4.7855337355
  C        15.5523230201        5.5137367662        6.0245908345
  H         6.8630450476        7.2035177489        3.5215855377
  H         7.7171059628        7.2281766368        1.9852527592
  C         6.0219652997        5.8616545781        2.0867981494
  N        11.5480278654       -0.5417725807        1.9474344881
  C        12.1138724632       -0.1940367870       -0.2498326752
  C        12.3314863683        2.0389052531       -1.3234379140
  H        12.0319655527        3.7634083358       -0.0055686214
  H        12.0138470988        1.7091879023       17.9081695291
  H        12.4992606498        3.3099287232       17.7482043759
  H        13.6363120639        2.0077375936       18.1770042063
  S         5.9258499601        6.3641749428       18.1950049681
  C         6.3368237434        8.9866339536       18.8844421381
  H        15.1336357692        4.9434382038        6.8590696048
  H        15.7121243208        4.8045103264        5.2891412170
  C        16.7141641579        6.3713413170        6.4689038241
  H         5.6478119495        5.1053750653        2.7226200024
  H         6.4984302005        5.3838314943        1.1719858796
  C         4.9336644055        6.7676842837        1.7739953401
  S        11.8489788995       -2.0247845873        1.4463076333
  N        12.1679751963       -1.5767198361       -0.0993005265
  C        12.3990516222        0.5128167186       -1.4474418972
  H        12.5673078219        2.6848885433       -2.1803067166
  C         5.8391596263        6.9176950090       19.8212115723
  N         5.9159686498        8.2553639317       19.9819549706
  O         6.5031370284       10.2051576796       18.6991946211
  H        17.3185928211        6.9136903251        5.6956334741
  H        16.5226921955        7.2237702336        7.1626312525
  C        17.7258857418        5.4758762992        7.2834507774
  H         4.0578453454        6.2084180103        1.9208661154
  H         5.0070153065        7.6265732578        2.4503670830
  C         4.8694694358        7.2970535547        0.3502526451
  C        12.7661261802       -0.2681588259       -2.6086315093
  S         5.5718550338        5.9293628395       21.2818128904
  C         5.8566812912        8.9150135386       21.2852876018
  H        17.1738922943        5.1209725206        8.1364670616
  H        18.0558433343        4.5638159416        6.7813692902
  C        19.0977194338        6.0649451749        7.6561216588
  H         4.7337817294        6.5412879575       -0.4326213917
  H         5.8684998786        7.7364097840        0.0521868036
  C         3.7664946064        8.3719459389        0.4053203902
  H        12.5943334079       -1.3464127142       -2.5744435453
  C        13.3940989974        0.0257562072       -3.7690092363
  H         5.1206703485        8.5280510692       21.9952857171
  H         5.4539969850        9.9119124143       21.1582383189
  C         7.1937172439        9.1829684602       21.9383414629
  H        19.4193723549        5.7350182237        8.6372072228
  H        18.9881221832        7.1843356419        7.7951637587
  C        20.2109306636        5.6376257969        6.6666238683
  H         3.1996417128        8.5328516098       -0.5104366950
  H         2.9991385083        8.0414581192        1.0594195331
  C         4.3161044035        9.7300651014        0.8220238988
  S        14.0381371774        1.5332729551       -4.1944384303
  C        13.6151435906       -1.0583897185       -4.7760695201
  H         7.6465274700        8.2963086910       22.3413280513
  H         7.0847517575        9.6115535821       22.8702154297
  H         7.9606911496        9.6652322033       21.3910938884
  H        20.3416299871        4.5542010511        6.6345835604
  H        19.9624409377        6.0218313609        5.6489823267
  H        21.1857355247        6.0004273669        7.0415325030
  H         5.4316036113        9.7314204574        0.8524436300
  H         4.0254078338       10.5846327964        0.2021064793
  H         4.0022524517        9.9155385412        1.8733921553
  C        14.3341927915        0.8683027013       -5.7926923633
  N        14.0755157568       -0.4498058107       -5.8766347050
  O        13.3301421068       -2.2407601640       -4.5811341602
  S        15.0213970088        1.7166833920       -7.2140927522
  C        14.1294170074       -1.2262588682       -7.0861530025
  H        14.0416146057       -2.2942391952       -6.7807371603
  H        15.0044593158       -1.0744147415       -7.6755120869
  C        12.9156689614       -1.1326286944       -8.0489329056
  H        12.0883879907       -0.5095654657       -7.6216247799
  H        12.4231071460       -2.0645184905       -8.2923175049
  H        13.3027002885       -0.6229974017       -9.0095200161
