352
 i =    90900, time =    45450.000, E =        99.8908778994
  H        12.0147327503        6.8493480367       32.5829343116
  C        11.4191206520        6.0025640799       32.6423099058
  H        11.9928282759        5.1875724345       32.3355649923
  C        10.2689774493        6.0367687683       31.5925169790
  C        10.8894474461        5.9104552697       34.0851093906
  C        10.8472040746        6.3107520997       30.1574144148
  H         9.7445910746        5.1405234926       31.6558859657
  H         9.5363984574        6.7850332962       31.7642535229
  H        11.6077877319        6.4645115198       34.7114898541
  H         9.9038064882        6.3883643382       34.1120943205
  H        10.6743037810        4.8539321606       34.3461821537
  C         9.8005808728        6.1644691523       28.9814805933
  H        11.6301831611        5.5374545274       30.0563100150
  H        11.3745463575        7.2307734659       30.2181943863
  C        10.4631144360        6.0730541383       27.6310530697
  H         9.3201112678        5.2332071893       29.1859192631
  H         9.1148904703        6.9875922128       29.1026318098
  C         9.6174180329        5.4708764645       26.5431138552
  H        11.2955149711        5.4436585024       27.7862772621
  H        11.0673035036        6.9296907668       27.2370180858
  C         8.3925452974        6.4026052018       26.1934108500
  H        10.1931846749        5.2185106468       25.6779879432
  H         9.2910216894        4.4524973688       26.8035112646
  C         7.1811759300        5.5615429706       25.5939821321
  H         8.1083039300        6.7587271644       27.1707493326
  H         8.6186162483        7.3212311276       25.6237407455
  C         6.8726508496        4.2445955101       26.3483254860
  C         7.5342150914        4.8124803261       24.3820942298
  C         5.9230807946        6.4783734917       25.3037691330
  C         6.9848092294        3.1312981887       25.5311560891
  C         6.4625825845        3.8960744207       27.6620906866
  C         7.4416108369        3.4576214221       24.2855273341
  C         7.9606075703        5.3611393300       23.1439471979
  H         6.2121549152        7.1968360938       24.5125892673
  H         5.7706040501        7.0655012760       26.1578108965
  C         4.5839266031        5.7702398306       25.0179744534
  S         6.4928457420        1.6417845943       26.3256839188
  C         6.2247103037        2.5770346114       27.7704058149
  H         6.4099435748        4.7177363949       28.4774955155
  C         7.7588193705        2.7744738069       23.1713349278
  H         7.9051589905        6.4141800980       23.1178555012
  C         8.2223841195        4.6471817475       21.9771682320
  H         4.7358672902        5.1088984326       24.1650890187
  H         4.4804230657        5.2152822576       25.9622964301
  C         3.3319053735        6.6345237539       24.7390889507
  C         5.8748339849        1.7987294703       29.0351330908
  C         8.1989195766        3.3303023359       22.0007100647
  H         7.7864247949        1.6665047652       23.1499594804
  C         8.6785331382        4.9338013810       20.6870941951
  H         2.7344921823        6.0809255432       24.0406316515
  H         3.5925413445        7.5853127229       24.2755246855
  C         2.3637751261        6.7501111203       25.9287087000
  C         5.9359036234        0.4238565955       29.3171469585
  C         5.1514074916        2.5358765201       30.1503253675
  C         8.5600465256        2.4369038060       20.7855184095
  C         8.7803466236        3.7479215305       19.9394900871
  S         9.0013156265        6.3972607974       19.8781903264
  H         1.5518614546        7.2836019795       25.5228421379
  H         2.7256784528        7.4255698494       26.6976445727
  C         1.7726523809        5.4001250942       26.4072702062
  N         6.6080028206       -0.5438023874       28.5269971869
  C         5.6803377031       -0.1504943471       30.5802611078
  C         4.9894148689        2.0034796132       31.4481735764
  H         4.8198361136        3.5581762988       29.9875973030
  C         7.3792088901        1.5524250886       20.2694965021
  C         9.9243602833        1.7074818959       20.9001214539
  C         9.0727240572        4.1008774056       18.6205966434
  C         9.2585098233        5.4597029805       18.4465826766
  H         0.8665831460        5.1652109584       25.8407458705
  H         2.4540566385        4.5664050657       26.1491628775
  C         1.4668714279        5.4246415432       27.9140036330
  S         6.3306503156       -2.0445097304       29.1870871594
  N         5.7493355684       -1.5322707302       30.6176238853
  C         5.2331100455        0.5542845522       31.7337883816
  H         4.6233463575        2.6425626857       32.1634796873
  H         7.2724045502        0.6214682960       20.9314248421
  H         7.7107756496        1.1932885398       19.2778235088
  C         5.9659345249        2.2446007776       20.0334154852
  H        10.2482256559        1.1169304153       19.9983430330
  H         9.8181290497        0.9429606401       21.7168159113
  C        11.0596164134        2.6414793120       21.3257717358
  H         9.1565057632        3.2316740644       17.9541406368
  C         9.7064720894        6.1573431894       17.2180149909
  H         0.9300160943        4.5470646824       28.1887226314
  H         0.8258038975        6.3311634808       27.9311911010
  C         2.6736973356        5.6483285486       28.8811515699
  C         5.1528597273       -0.1132846365       32.9661719724
  H         6.0560007368        3.2145378849       19.4657970400
  H         5.4400700553        2.6015319900       20.8695936940
  C         5.1121194648        1.3703061927       19.1099424046
  H        10.7746685903        3.3425345744       22.0924997801
  H        11.3329357754        3.1392883826       20.3457229942
  C        12.2729448960        1.9438055902       21.8348303582
  C         9.8931089879        7.4963794052       17.0695286934
  C         9.9968245754        5.3613121002       15.9743747030
  H         3.3477323321        4.7737096325       28.8164962098
  H         3.2115830844        6.5345077186       28.7127816018
  C         2.1485110691        5.6792248044       30.3360173549
  H         5.3868948246       -1.1483436807       33.0241142267
  C         4.7158103420        0.2882327232       34.2450165844
  H         5.1892722118        0.3704269908       19.4876367982
  H         5.5357485181        1.3974676558       18.1384728935
  C         3.6250420005        1.7317991333       19.2552080587
  H        11.9524172309        1.5621240648       22.8231548179
  H        12.6487239262        1.0700161015       21.1945959493
  C        13.4668091384        2.8420872223       22.1654681573
  N         9.7011697015        8.4931439437       18.0714066053
  C        10.3280685896        8.0638170274       15.9041947555
  C        10.4489059821        5.9411477339       14.7770987378
  H         9.8904742652        4.2949951087       16.0798960872
  H         1.1165942221        6.1513336487       30.3062284409
  H         2.0594760447        4.7069268462       30.7527559604
  H         2.7457164699        6.2860168823       31.1110133964
  S         4.2730250014        1.9125936773       34.6709811216
  C         4.5134232816       -0.7261539293       35.3484101687
  H         3.3833360261        1.4425575392       20.2963254183
  H         3.4424815748        2.8127707131       19.1072157661
  C         2.7425160407        1.1344170535       18.2216582943
  H        13.1045206902        3.7236575457       22.5670455667
  H        13.9859011174        3.2409974974       21.2792195659
  C        14.4666727476        2.1798431233       23.0438509422
  S         9.9379346966        9.9226508932       17.3758381875
  N        10.6084673121        9.3717742233       15.9428949838
  C        10.6339445970        7.3651901152       14.6873952622
  H        10.6426065350        5.2068870438       14.0262399343
  C         4.0792906937        1.3410918315       36.2961890499
  N         4.2057316007       -0.0065764531       36.4699435313
  O         4.6706888900       -1.9556333511       35.2578747583
  H         3.3133729695        0.9321183887       17.2494824500
  H         2.0834678520        1.9658640581       17.9599058627
  C         2.0187385723       -0.0788759919       18.7912733187
  H        14.0096337024        1.7496699352       23.9326787718
  H        14.8988125766        1.4426698287       22.3810327691
  C        15.4608065920        3.1005488618       23.5304579570
  C        11.0018098810        8.0612823685       13.5233886376
  S         3.6856956906        2.4276756827       37.6873451936
  C         4.1144261526       -0.7710808778       37.7668714090
  H         1.7026158096        0.2417074797       19.7606164471
  H         1.0568236501       -0.1183098693       18.1892577316
  C         2.5838067542       -1.4528941820       18.7266328636
  H        15.9376204669        2.8313497761       24.3941549282
  H        15.0561785748        4.0568923131       23.8247569141
  C        16.5822052244        3.3707297609       22.5310315105
  H        10.7407835119        9.1063837271       13.4573360369
  C        11.6530934404        7.6991224988       12.3675013743
  H         3.1601216263       -0.4657531461       38.2864559606
  H         3.9297121622       -1.7907742320       37.5193604209
  C         5.3834156928       -0.5804686095       38.4951334304
  H         1.8471724798       -2.2514947884       18.9983046835
  H         3.2936233339       -1.4111734214       19.5014748464
  C         3.2862675667       -1.8997749803       17.4445098507
  H        16.2193743949        3.3583499798       21.5168570375
  H        16.9310008684        4.4125740926       22.6479514720
  C        17.7449522446        2.5103205779       22.7632111945
  S        12.2106034920        6.1260495907       11.9664310144
  C        11.6896404277        8.7163070003       11.3126120932
  H         6.2099121004       -1.0167657423       37.8203511608
  H         5.5498405643        0.4476931284       38.7164881602
  H         5.3507432969       -1.2859722602       39.3075379434
  H         3.4553794086       -2.9556110632       17.3669237684
  H         4.1932912700       -1.2894170364       17.2876718207
  H         2.6440582449       -1.5896460280       16.5350947142
  H        18.1589110466        2.4045871240       23.7818005032
  H        18.6483804032        2.7022712295       22.2106024270
  H        17.4138357309        1.5128362862       22.6563644674
  C        12.6626386008        6.8268265280       10.3924072617
  N        12.2471629860        8.1339469949       10.2042512754
  O        11.2804781921        9.8850519698       11.3301533121
  S        13.7120008146        6.0133105000        9.2357432239
  C        12.3576953534        8.8412413520        8.9654506599
  H        12.6381787668        9.8077220402        9.0543470620
  H        13.1514601150        8.3747180849        8.4059541855
  C        11.1783168570        8.6567713460        8.0760063829
  H        11.0142917049        7.5814263211        7.9313568799
  H        10.3320462665        9.1441706120        8.4847075907
  H        11.4444333340        9.1267236256        7.1444781195
  H         4.6147436185        1.5113939526       12.9893302610
  C         4.0317045461        2.4295928846       13.0016899751
  H         4.8276125873        3.1971767018       12.9994147159
  C         3.1507817351        2.5349297332       11.7617119953
  C         3.2555545856        2.4962140760       14.2544913017
  C         3.9002708367        2.6904561967       10.4528011293
  H         2.4848959987        3.4332598048       11.8619047258
  H         2.6195555610        1.6352274989       11.6716432447
  H         3.3776618323        1.6448174016       14.8796842665
  H         2.2102899368        2.4212754600       14.0347588671
  H         3.3899382955        3.3928845832       14.8711490954
  C         4.5632104696        1.3638125117        9.8851831166
  H         3.0889635433        3.1310604090        9.7877066185
  H         4.7225278990        3.4568788261       10.6013892560
  C         5.2928461952        1.6088447168        8.5971182846
  H         3.9394496838        0.5239761486        9.7225487427
  H         5.3787915446        1.1095215826       10.5771941370
  C         6.6200391475        2.4448025676        8.6802936310
  H         4.6075038979        2.0495284590        7.9115415969
  H         5.6221677546        0.6398347223        8.2878160711
  C         7.7575603740        1.7185549116        9.4481197661
  H         6.9545912492        2.8747683261        7.7191221300
  H         6.4591366510        3.2844520420        9.3344574815
  C         9.0607551170        2.5939729135        9.5329235935
  H         8.0438390396        0.7987062772        8.8895809756
  H         7.4774962228        1.4494838825       10.4338180433
  C         8.6950819028        3.9007762659       10.2463572452
  C         9.4718105258        3.3295925907        8.2831075816
  C        10.1873015153        1.8782657568       10.2877821394
  C         9.0666065493        5.0207120355        9.4615112817
  C         8.1241904036        4.2579101328       11.4745103903
  C         9.4978205406        4.6619327065        8.2013275052
  C         9.8901085881        2.7471237863        7.0745301066
  H         9.8193524781        1.5306764831       11.1934777360
  H        10.5987462568        1.1501542768        9.6451011274
  C        11.2997655505        2.8734145555       10.7583271926
  S         8.7905636280        6.4956487886       10.2858824663
  C         8.0395580874        5.6382083251       11.5998007768
  H         7.8743335020        3.4468957967       12.1822419056
  C         9.7218746990        5.3220463583        7.0693272241
  H         9.9303484024        1.6962434672        7.1531524630
  C        10.2605087560        3.3878815365        5.9032494878
  H        10.7551131840        3.5414522152       11.4707085585
  H        11.7002482995        3.4072380037        9.9336482922
  C        12.4518358939        2.1526828753       11.4876342349
  C         7.6257931062        6.4277580869       12.8349892565
  C        10.2324421776        4.7673216197        5.8311023601
  H         9.6797868597        6.4257885815        7.0874846573
  C        10.7033459260        2.9850266263        4.6595396973
  H        13.3672500583        2.7359462809       11.5876912166
  H        12.7879204705        1.2307681719       10.9176424663
  C        11.9645973080        1.7560136690       12.8819598386
  C         7.7552534477        7.8194286061       13.0703625362
  C         7.1318848437        5.6457973553       13.9754688679
  C        10.5966074828        5.4395815387        4.5046614614
  C        10.8268277452        4.0638540631        3.8067080980
  S        11.0267694650        1.4426079766        3.8975478106
  H        10.8947723723        1.9327848740       13.1492069796
  H        12.1618858720        0.7122311389       12.9806095535
  C        12.7115184868        2.4498991938       14.0299682330
  N         8.0885665413        8.7854828362       12.1532807711
  C         7.5586183932        8.3453335061       14.3142086050
  C         6.7865812389        6.1981948989       15.2490177480
  H         6.9689019095        4.6001135909       13.8923361507
  C        11.9836468274        6.2668828656        4.6474178645
  C         9.4747923777        6.3130654309        3.7933935811
  C        11.1658330153        3.6282521635        2.4931021217
  C        11.3051817444        2.2346273007        2.3956345861
  H        12.7920596190        3.4885786143       13.8781576797
  H        13.7099742275        2.0386717447       14.1581396292
  C        12.0611050909        2.3519974899       15.3900829916
  S         8.3637627922       10.1823091921       12.8938150303
  N         7.8035536938        9.7162425871       14.3089595282
  C         6.9543678585        7.6919342889       15.3985646637
  H         6.3605027202        5.5269699589       15.9511899109
  H        11.9332958832        7.2089801424        5.1056086101
  H        12.1293333745        6.4949260243        3.6116909086
  C        13.1579559876        5.4933472920        5.2954379644
  H         9.1191332583        6.9790322185        4.6098719922
  H         9.9401817466        6.8556412814        2.9754004135
  C         8.2294922943        5.5534176382        3.2132194611
  H        11.2615381083        4.4028607119        1.7542168000
  C        11.6606935973        1.3914937386        1.1588316943
  H        11.8620648842        3.4030602541       15.6933928306
  H        11.0721261240        1.9230930272       15.2311083584
  C        12.9889333006        1.6071001062       16.4050725232
  C         6.6841834107        8.4281851428       16.6261070660
  H        12.7573343283        5.2803992857        6.3205807264
  H        13.3859577208        4.5129234283        4.8676458712
  C        14.4888421062        6.2140570748        5.2920568440
  H         7.7479188750        4.8800018165        3.9680285620
  H         8.4786524180        4.7822079226        2.4484945366
  C         7.2626422567        6.5894027696        2.5252643871
  C        11.8659294387       -0.0463259729        1.1080716995
  C        11.7233656729        2.0765682380       -0.1313318849
  H        13.9783322284        2.2244227708       16.4172614490
  H        13.1451412988        0.6012202657       16.0249533935
  C        12.4207409451        1.6820074806       17.8520739856
  H         6.8845558179        9.4770133242       16.5336142583
  C         6.3319219191        8.0244395674       17.8846552227
  H        14.5705098065        7.1351367607        5.8461259788
  H        14.6280910822        6.4952654808        4.2213287264
  C        15.6027211640        5.4967757354        5.8846192586
  H         6.8039731365        7.2739923316        3.2212134838
  H         7.8661200567        7.2942382078        1.8830341117
  C         6.1666741636        5.9731672264        1.7343569545
  N        11.7275804183       -0.9437879188        2.2124139937
  C        12.1366434982       -0.7342897928       -0.0490070248
  C        12.1983931979        1.3753125544       -1.2524702540
  H        11.5812671803        3.1197309646       -0.1958522571
  H        11.3862486168        2.0044661579       17.7932893909
  H        12.9451219913        2.4445091875       18.3942373292
  H        12.4831270930        0.7676976400       18.3932274126
  S         5.9548735521        6.4090024419       18.3415608476
  C         6.3881121962        9.0276691936       18.9093397248
  H        15.1687639646        5.1598126018        6.8916540001
  H        15.8081211517        4.5957563191        5.3019849038
  C        16.8845165588        6.2648183185        6.0120423270
  H         5.8891032529        5.0385598401        2.1092761900
  H         6.5537161425        5.8164116186        0.7125621393
  C         4.8714851914        6.8526569709        1.5989608199
  S        11.6264772570       -2.5318124693        1.6341450840
  N        12.1126697291       -2.1130453931        0.1634565340
  C        12.4118804367       -0.0727373544       -1.2372230987
  H        12.4245378814        2.0028009234       -2.0535982203
  C         5.7534201637        7.1382942452       19.9739944904
  N         5.9126675059        8.5212464257       20.0466705352
  O         6.8856470824       10.1066820828       18.7656737724
  H        17.4607074747        6.1708714722        5.1118853387
  H        16.7428005108        7.3257603307        6.2725569802
  C        17.5272962420        5.6743335365        7.1434248767
  H         4.2233269310        6.1123309266        1.1877366050
  H         4.4085920186        7.0365126699        2.5501666959
  C         5.1494817881        8.1515626368        0.7968396284
  C        12.8988340733       -0.8351799773       -2.3407690996
  S         5.2515159910        6.3145396996       21.4430382024
  C         6.1139121499        9.2524817714       21.3349425892
  H        17.1883774444        6.2375374811        8.0128932668
  H        17.1556053523        4.6285867158        7.2757374961
  C        19.0086263346        5.9412876130        7.1642832349
  H         5.4481938430        7.7836940459       -0.1961629957
  H         6.0760426855        8.7087670848        1.1845976183
  C         3.8808575142        9.0536952593        0.8210171533
  H        12.7783690537       -1.8763944370       -2.1754686719
  C        13.3873158973       -0.4981866446       -3.5612155291
  H         5.4180844799        8.9867201760       22.1603747375
  H         5.7684984320       10.3182947750       21.1329678011
  C         7.4545417077        9.2397960994       21.7676646531
  H        19.3174004424        5.9371897947        8.2346959430
  H        19.2729857192        6.9032488816        6.8141434101
  C        19.8179598817        5.0853515745        6.1380350602
  H         3.8503984929        9.7330663756       -0.0639922790
  H         2.9291725454        8.5079188323        0.8764283643
  C         3.8820090413        9.9179813936        2.0460371166
  S        13.7016454380        1.1425183364       -4.1264298451
  C        13.6602343457       -1.5518521861       -4.6267553458
  H         7.5039505126        8.6887672865       22.7513811960
  H         7.7578057669       10.2368795724       21.9410715957
  H         8.1348963138        8.9676456275       21.0883130869
  H        19.2681554671        4.1719799108        6.0236668229
  H        19.9190917624        5.5541844358        5.1620661656
  H        20.8759720351        4.9084290374        6.4498272532
  H         3.0255173040        9.7900352802        2.6712422581
  H         4.8006544948        9.6951617705        2.6886338433
  H         3.8241306709       10.9836006261        1.7288183291
  C        14.1436454043        0.3994595553       -5.6878285401
  N        14.0086401231       -0.9412765561       -5.7811734945
  O        13.3746431698       -2.7879196864       -4.4816503031
  S        14.7553594880        1.3727703470       -7.0649874933
  C        14.1381674467       -1.6732500785       -6.9864139049
  H        14.1777653565       -2.7512393906       -6.8209776801
  H        15.0894481077       -1.4829131061       -7.5612260648
  C        12.9059490845       -1.4302892819       -7.7509541328
  H        12.5333203591       -2.2886602830       -8.2805380250
  H        13.0962384739       -0.7046326351       -8.6098066615
  H        12.2008723526       -1.0835813750       -7.0313517813
