352
 i =    28900, time =    14450.000, E =       101.0266473393
  H        10.2696945607        4.3153187822       31.9221576804
  C        10.3812755065        5.2537067595       32.3475175501
  H         9.3488752346        5.4996995689       32.5307063354
  C        11.0272919510        6.2633716845       31.4362884204
  C        11.1732991477        5.1694529452       33.6680295677
  C        11.3472238722        5.5999397367       30.0760512854
  H        10.3765454690        7.1800091603       31.2261606853
  H        12.0603895832        6.6154727224       31.8238374265
  H        10.7581446657        4.3689290841       34.2234191790
  H        12.2973811667        5.0081420941       33.5471817616
  H        11.1635909831        6.1075775561       34.2225540578
  C        10.2042556700        5.5631403206       29.1452242582
  H        11.7973933985        4.6217250835       30.1564163800
  H        12.2120517816        6.1516251749       29.6167507567
  C        10.6771216847        5.1729062723       27.7614435663
  H         9.4021408689        4.9799924943       29.6649721302
  H         9.8367187360        6.6164220710       29.1644588251
  C         9.4801136111        4.5811667118       27.0216480150
  H        11.5002036239        4.4517527294       27.7545864407
  H        11.0703017739        5.9969591813       27.1599788587
  C         8.4572588974        5.5474528317       26.3187529228
  H         9.9465587479        3.8974819205       26.3424093573
  H         8.9834216738        3.9318029548       27.8178270036
  C         7.3190488220        4.7934307520       25.6181406852
  H         8.1168999225        6.3280371703       26.9549636968
  H         9.0372110881        6.1271279543       25.6457548774
  C         6.9189950703        3.4661337480       26.2417751888
  C         7.7501510190        4.0632559623       24.3332704979
  C         6.1086439223        5.7380206370       25.3507403765
  C         7.1128645650        2.3634685475       25.4187377263
  C         6.3051040595        3.1219423358       27.4155465404
  C         7.6386406169        2.7352144369       24.1824807789
  C         8.3020105657        4.6689834307       23.1675163101
  H         6.4723929992        6.5507734624       24.6621996897
  H         5.8532800325        6.2291280826       26.3346402808
  C         4.9433543486        5.0084520312       24.7931405599
  S         6.7909464745        0.8736350512       26.2123551451
  C         6.2372135047        1.7484480822       27.5612178538
  H         5.7888498050        3.8483948433       28.0935769545
  C         8.0994599416        2.0775454609       23.1023724310
  H         8.5055694065        5.6848900357       23.3394864041
  C         8.6432660577        3.9984962920       22.0177630595
  H         5.1370357424        4.5747018482       23.8160163036
  H         4.6715972784        4.1556051889       25.3246975503
  C         3.7995663109        5.9459390360       24.5918428371
  C         5.8136558825        1.0525508189       28.7981123302
  C         8.6433907852        2.6607960297       21.9334443188
  H         7.9881788945        0.9688380168       23.1159614525
  C         9.1750465505        4.4010698428       20.7971491169
  H         3.0556277006        5.6470496065       23.9098517727
  H         4.2991085490        6.8570443772       24.1109866659
  C         3.1363417225        6.2555782629       25.9172332062
  C         6.0292681621       -0.3523418384       29.1795434939
  C         5.2275186202        1.8527150512       29.9436693436
  C         9.0664781200        1.9646424283       20.6585901259
  C         9.3352108140        3.3287679752       19.9654860397
  S         9.4763231916        5.9041530520       20.0346707352
  H         2.6780709062        7.2868168079       25.8694199283
  H         3.8206019236        6.3107659109       26.7552694478
  C         2.1267675347        5.1555745242       26.3243544104
  N         6.3716426853       -1.4474104925       28.2751776889
  C         5.7928578903       -0.8582153497       30.4476794132
  C         4.8723682827        1.3147742429       31.1973162245
  H         5.1691884607        2.9290812260       29.8715544804
  C         7.9556210545        1.1643830935       19.8623191596
  C        10.2929126269        1.0564797319       20.7824301114
  C         9.6849593887        3.7124132909       18.6222659508
  C         9.7775295398        5.1137704854       18.5645725981
  H         1.4718894575        5.1154429635       25.4868258527
  H         2.5891015047        4.1517037296       26.3165206802
  C         1.3407613209        5.4020448487       27.6295093048
  S         6.4212459400       -2.8793519523       29.0552624117
  N         6.0666070108       -2.2198487873       30.5423081080
  C         5.2465506948       -0.0983579273       31.5391596218
  H         4.4937715088        2.0299477986       31.9319125767
  H         7.5371414556        0.4516410027       20.5161890414
  H         8.5045610906        0.6154876091       19.0888049981
  C         6.7548642412        1.9214892148       19.3383763736
  H        10.4497063795        0.4009404282       19.8646857899
  H        10.1610815216        0.3492772219       21.5221026876
  C        11.5012847682        1.8222279942       21.1004076223
  H         9.8408378446        3.0047209666       17.7811793146
  C        10.0091176926        5.9416152263       17.2902494613
  H         0.6109930708        4.6192648346       27.7776668905
  H         0.8109195769        6.3786382706       27.6092344241
  C         2.2415360237        5.5030552921       28.8410100418
  C         5.1101034396       -0.7532848252       32.8094640005
  H         7.0072843637        2.2818170240       18.3638351461
  H         6.3709264459        2.7506241141       19.9724480244
  C         5.6384396701        0.9327746125       19.0644934985
  H        11.4048659425        2.3449330380       22.0173602066
  H        11.7475692153        2.5118937787       20.2581584696
  C        12.6973363012        0.8624045588       21.3155991613
  C        10.1659991125        7.3514077823       17.1963868470
  C        10.2292279387        5.1698488487       16.0792509072
  H         2.9146592628        4.6448858202       28.7962073906
  H         2.8798359997        6.4081640347       28.8453087220
  C         1.3766753626        5.5821048310       30.1506528192
  H         5.3110276793       -1.8140383611       32.7475737035
  C         4.7689064692       -0.3041309853       34.0387660540
  H         5.4354351066        0.3101661617       19.9002136515
  H         5.9458902492        0.2763460836       18.2461861623
  C         4.3646600769        1.5801462259       18.5323261852
  H        12.5367928592        0.3255099909       22.1944042253
  H        12.6374362523       -0.0139796839       20.6882919399
  C        14.0410614674        1.5611197801       21.3333543168
  N         9.8504909299        8.2565268343       18.2258344303
  C        10.4149126898        8.0172409668       16.0079625855
  C        10.5148850369        5.8496444027       14.8435501613
  H        10.1893000960        4.0602169597       16.0462129996
  H         0.4848138680        5.0580782196       30.0280210756
  H         1.8131464161        5.1394128448       31.0403498942
  H         1.1072898463        6.6391367992       30.3195912255
  S         4.4261724160        1.3401720421       34.4483766718
  C         4.6065517433       -1.2777711664       35.1722841177
  H         4.1041319511        2.4410627525       19.2242826308
  H         4.5092287314        1.9337035762       17.5583819712
  C         3.1991020783        0.5572725490       18.6621437218
  H        14.1442836972        2.2993305526       20.4980660610
  H        14.8042270812        0.8556368826       21.1386517392
  C        14.2766037520        2.0128970935       22.7956287367
  S         9.7383203792        9.7238639815       17.5664807767
  N        10.3360389110        9.4266110487       16.1161826827
  C        10.7091345322        7.3099624609       14.8390910008
  H        10.5562906708        5.2887165306       13.9072022985
  C         4.0491101461        0.7498672797       36.1161786723
  N         4.2413176808       -0.6187099824       36.2489071173
  O         4.7215283575       -2.4922649923       35.0391767997
  H         2.2411523824        1.1242596350       18.3536100870
  H         3.0587698551        0.1593556101       19.7125558500
  C         3.3727545514       -0.5269508106       17.6281796811
  H        13.5100991074        2.7533368044       22.9481016239
  H        14.0230721151        1.2595449788       23.5500356606
  C        15.5999980808        2.7665168368       22.9923881919
  C        11.0555969044        8.0495466023       13.6356408407
  S         3.4545044162        1.6429001971       37.5234249421
  C         4.1661069968       -1.2377493583       37.5548356585
  H         3.2742927105       -0.0075106796       16.6537864152
  H         4.2991992899       -0.9623390883       17.8604481162
  C         2.4981483660       -1.6955015169       17.8911320520
  H        15.4851950876        3.3400455068       23.9626885850
  H        15.7548228858        3.4694709548       22.2057839516
  C        16.7383528807        1.7982267482       23.2238838567
  H        11.0500664580        9.1010716030       13.7972476266
  C        11.5736914877        7.6554813728       12.4264247331
  H         3.4972521780       -0.7503286626       38.2236990305
  H         3.8356413431       -2.2604163113       37.3703869640
  C         5.5332641300       -1.2428815883       38.0857146265
  H         1.4467854657       -1.3976876696       17.7566070989
  H         2.5864800296       -2.0955774354       18.8569297271
  C         2.8005103710       -2.8415969761       16.9168922997
  H        16.9070653019        1.7922307423       24.2634519077
  H        16.5193193196        0.8044251345       23.0891674455
  C        17.9800661971        2.0986915344       22.3793324178
  S        11.9571980066        6.0930260672       11.9877030327
  C        11.5368304729        8.6818277409       11.4162134876
  H         5.5573178604       -0.7641224793       39.0860641736
  H         6.0409594489       -2.1985861335       38.1753290211
  H         6.2830892647       -0.6722168052       37.4131448979
  H         2.1842390523       -2.6096477360       16.0378565463
  H         2.4476312248       -3.7918486724       17.3364088422
  H         3.8996913087       -2.9607852279       16.8811514025
  H        17.8482926189        1.9327193420       21.2919666541
  H        18.7406022536        1.5410007738       22.8474581419
  H        18.2794354921        3.1626247467       22.3882110281
  C        12.2414396554        6.7827323572       10.4320531253
  N        12.0481058434        8.1153580759       10.2930687958
  O        11.2591476255        9.8440518855       11.5736778733
  S        12.7445194332        5.7767208735        9.0833355656
  C        12.0809922954        8.8829596963        9.0729149015
  H        12.3595059048        9.8343699684        9.3214278593
  H        12.8093234615        8.4636209220        8.3632337066
  C        10.7839496730        8.9691132584        8.3279434867
  H        10.0615586592        8.1769269257        8.6614514039
  H        10.2817475491        9.9345196005        8.3473810944
  H        11.0281014349        8.7886967946        7.2611472610
  H         4.1911698880        1.0254427944       13.0114229289
  C         4.0387049250        2.0885614054       13.2489553994
  H         5.0196272927        2.6253133158       13.3333483651
  C         3.0932748109        2.5329056074       12.0829997262
  C         3.3336696038        1.9140932808       14.5993686157
  C         3.9269000254        2.6686467287       10.7026882174
  H         2.6018498689        3.4593416131       12.3644158453
  H         2.3761905082        1.7232106490       12.0408717740
  H         2.6137421666        1.1210146094       14.4523672610
  H         2.7843156028        2.7513563054       14.8889012455
  H         4.0811181491        1.9408835837       15.3785879075
  C         4.5213946138        1.3906377055       10.0907346015
  H         3.2623798032        3.1608828352        9.9975316042
  H         4.7137139649        3.4171021567       10.9760195697
  C         5.3534045943        1.5949741334        8.8372519900
  H         3.6601520823        0.6953869566        9.9381672964
  H         5.2175669127        0.9929233159       10.8156230416
  C         6.7341481297        2.3468207454        9.0373244559
  H         4.7546948961        2.1770575074        8.1551666636
  H         5.4961630828        0.6376484109        8.3832251580
  C         7.9419662480        1.5998536793        9.4663067179
  H         6.8871837895        2.9111155613        8.1139359605
  H         6.6085280958        3.1458926973        9.7650178083
  C         9.2682766024        2.4660696570        9.5104910699
  H         8.1759398674        0.9076342590        8.6763019833
  H         7.6807259520        0.9607637337       10.3652365964
  C         8.9399910315        3.7282336810       10.2174773880
  C         9.6570648239        3.2303433701        8.2429942326
  C        10.4328586118        1.7228511075       10.1641221823
  C         9.0841301005        4.8574765469        9.3954964598
  C         8.4097311858        4.0728508493       11.5078809369
  C         9.5397455783        4.5476467510        8.1262891186
  C        10.0803641289        2.6052456923        7.0601148864
  H        10.0265981812        1.3689498341       11.0962899706
  H        10.6146774391        0.7739906150        9.6264775612
  C        11.6950319482        2.5341239626       10.3907041552
  S         8.6576960611        6.3556456065       10.1724542812
  C         8.3302032576        5.4468240059       11.6584818758
  H         8.0643784096        3.3627155733       12.2583266860
  C         9.8567953261        5.1766558031        6.9499079789
  H        10.1743541170        1.5440117902        6.9777844340
  C        10.3536249081        3.2381496932        5.8768048921
  H        11.2998265406        3.4534881168       10.8427038848
  H        12.1030681720        2.8778443574        9.4477201894
  C        12.8972894081        1.9258392959       11.0921124638
  C         7.8538057457        6.1419440495       12.8852232549
  C        10.3398674597        4.5976266400        5.7732843969
  H        10.0548863445        6.2439377256        7.0096606269
  C        10.7701857701        2.8897697298        4.5910128894
  H        13.7754256643        2.5363257095       11.1105175443
  H        13.1249360280        0.9609816757       10.5863641771
  C        12.5349388365        1.7706243461       12.5625990606
  C         7.8126603948        7.5449160370       13.0721602555
  C         7.3817001927        5.3367983768       14.0414359768
  C        10.7402255703        5.3485253791        4.5367486485
  C        10.9862986553        4.0109921882        3.8095572623
  S        11.1660803445        1.3991279500        3.8968512620
  H        11.7542063585        2.5116481869       12.8954948465
  H        12.0471150265        0.8159502771       12.8339322114
  C        13.7981514295        1.8731114991       13.4751443378
  N         8.2939339552        8.5368152319       12.2280993575
  C         7.3070002196        8.0993113851       14.2172966519
  C         6.9336690435        5.8743277346       15.1842539763
  H         7.1879816361        4.3081257905       13.9533663128
  C        11.9544122736        6.2890893654        4.7652165782
  C         9.5521194436        6.1356854743        4.0045935500
  C        11.3546931358        3.6022620071        2.5497779892
  C        11.4622770718        2.2366489606        2.4222313159
  H        14.0865760846        2.9017592255       13.3043433755
  H        14.6068745531        1.1913017840       13.0533362840
  C        13.5172930058        1.5210647457       14.9472894853
  S         8.0725621524        9.9785788734       12.8807389319
  N         7.5058650881        9.4308252312       14.2850679555
  C         6.9246446059        7.3361950616       15.3717712879
  H         6.6693268711        5.2468689310       15.9880385946
  H        11.7732602483        6.9635366156        5.6556766486
  H        12.0895306269        6.8919556614        3.8579210554
  C        13.2437548339        5.4951376838        4.9309190756
  H         8.9215676682        6.7872162882        4.6402696729
  H        10.0053551961        6.8213232423        3.2312169578
  C         8.4606962481        5.2507518009        3.2815236999
  H        11.4540665511        4.3534902083        1.7727885494
  C        11.7998443954        1.5926752844        1.0897456762
  H        13.4264056056        0.4498074815       15.1203092572
  H        14.4137682158        1.7910749623       15.5542419440
  C        12.4439886850        2.2700600962       15.6793325502
  C         6.8609346889        7.9250489619       16.6303706844
  H        13.0253561305        4.6000690312        5.4838653787
  H        13.5774847369        4.9279610547        4.0217619654
  C        14.3568277207        6.3098315451        5.5726990813
  H         7.8706731975        4.6736816952        3.9927435912
  H         8.8553793228        4.5466447537        2.5732468000
  C         7.6219569607        6.2282174745        2.5123894385
  C        11.7960117471        0.1867966096        0.9006161306
  C        12.1280338453        2.3888008738       -0.1154949873
  H        11.5450353839        1.7271811765       15.4711557446
  H        12.3471300008        3.2715535476       15.3187506749
  C        12.7166155006        2.3566877151       17.2165953641
  H         6.7747427811        9.0057191510       16.6644103348
  C         6.6613773252        7.5134910541       17.8923352969
  H        14.0710904527        6.9091686897        6.4722704872
  H        14.5937921737        7.0596353388        4.8379102557
  C        15.5813716813        5.5174863012        5.9085244505
  H         8.0806512196        7.2049458472        2.4826586885
  H         7.6011424910        5.8701271977        1.4993201089
  C         6.1959529105        6.3886233357        3.0686855990
  N        11.4469646980       -0.7829314846        1.8409561841
  C        12.0484676036       -0.3993136508       -0.3458950761
  C        12.2743469661        1.8334862413       -1.3725019348
  H        12.0899129983        3.4610473530       -0.1079754772
  H        11.9872582400        3.0394491616       17.7321398423
  H        13.5917501634        2.8846399813       17.2914988304
  H        12.7232343129        1.5158648784       17.8800705050
  S         6.3593926248        5.8763644682       18.3702521789
  C         6.7060676974        8.4977413250       19.0201415087
  H        15.2881772476        4.9622579983        6.7837589253
  H        15.8625900327        4.7971610390        5.1669153501
  C        16.7862132395        6.3379307366        6.3021081969
  H         6.2830040676        6.8950804751        4.0153431757
  H         5.7209626879        5.3802218841        3.2237185311
  C         5.3874061977        7.2439868424        2.1034610442
  S        11.4695722166       -2.2468789338        1.1131469466
  N        11.8565939249       -1.7865225369       -0.3388366338
  C        12.3765593265        0.3603304303       -1.4854146180
  H        12.4478977455        2.4751427557       -2.2334819013
  C         6.1838243967        6.4568990695       19.9525689193
  N         6.3371406464        7.8423708083       20.1090816590
  O         6.9291143887        9.6860340781       18.9030847178
  H        17.1011248205        7.0920884804        5.6140606298
  H        16.5036438889        6.7711265641        7.2325203427
  C        17.9498226605        5.4193498001        6.5883891999
  H         6.0064941789        8.0152566556        1.6632193604
  H         5.0759764033        6.6145187958        1.2728254313
  C         4.1867347174        7.9679980849        2.7771110571
  C        12.5698517156       -0.3241552017       -2.7022046595
  S         5.5944291116        5.5068608854       21.2698009180
  C         6.3666922563        8.4602219644       21.4805840456
  H        17.5912774433        4.5717921417        7.1898855873
  H        18.2198058358        5.0160450480        5.5608989112
  C        19.0963745244        6.0870751957        7.3485296868
  H         4.5423075398        8.4781436324        3.6708405883
  H         3.3321834964        7.3113264027        3.0967626293
  C         3.7153799180        9.2056644574        2.0042181201
  H        12.1287828002       -1.3222646897       -2.7505559920
  C        13.0819818057        0.0356932942       -3.8987447051
  H         5.7938171849        7.9954827303       22.2224996275
  H         5.9517286891        9.4735128884       21.3993734609
  C         7.8426436569        8.5279353671       21.9770259655
  H        19.3750213954        5.4834130811        8.2057268069
  H        18.8767378319        7.0830071668        7.7673591360
  C        20.2815664085        6.0551689550        6.4350975991
  H         2.7868913035        9.6326379367        2.4706775916
  H         4.5979516225        9.9270578446        2.1358476090
  C         3.4793873109        8.8975578232        0.5498201268
  S        13.7666341083        1.6322766333       -4.2843573394
  C        13.2276039051       -1.0312590724       -5.0032772772
  H         8.3468627773        7.5629383839       22.0016301462
  H         7.7896401931        8.8409362737       23.0459711853
  H         8.4965721053        9.2177166101       21.4851009140
  H        20.0645822947        6.7046020896        5.5044744600
  H        21.1631614019        6.3794361819        6.8696787818
  H        20.3995495657        5.0480221981        6.0148405960
  H         2.8847974905        9.7722064765        0.1241597581
  H         4.4345859524        8.7618701494        0.1019533645
  H         2.9479771869        7.9493833957        0.3395764441
  C        14.2773269201        0.8635211829       -5.8522975474
  N        13.9952332094       -0.4717525271       -6.0030335265
  O        12.7828547907       -2.1589847307       -4.9472191332
  S        15.0268622139        1.6783210810       -7.2462800227
  C        14.0768555695       -1.2546322191       -7.2264240393
  H        14.0599052927       -2.2880294574       -6.9133705014
  H        15.0398528854       -1.0553610947       -7.7173960837
  C        12.9176715715       -0.9810244603       -8.1233776877
  H        12.9396658332       -1.7840412870       -8.8366207204
  H        13.1003678780       -0.0529344011       -8.5615714889
  H        11.8800557519       -0.9206222151       -7.7314875332
