352
 i =    34900, time =    17450.000, E =        97.2458486288
  H        10.2232714038        4.8492077888       31.8277637720
  C        10.7481232002        5.7452295868       32.2444305096
  H         9.8375986485        6.3620957313       32.4741084177
  C        11.6917084921        6.3828584968       31.1803366583
  C        11.4073708524        5.3232645184       33.5206697092
  C        11.6279224408        5.7647917488       29.7957724432
  H        11.2733392222        7.3847019507       31.1333068660
  H        12.6771399391        6.4920955167       31.6152391205
  H        10.8280933591        4.4599716298       33.8373740789
  H        12.3828265302        4.9529403217       33.1039266873
  H        11.4736122992        6.1943242600       34.1863404219
  C        10.3235800704        5.5443155404       29.1125473296
  H        12.2298127868        4.8146708088       29.7195667585
  H        12.0658684914        6.4658452749       29.1627357421
  C        10.6019025316        5.2897547343       27.6956978165
  H         9.7361366150        4.7136784109       29.4670859253
  H         9.7408608576        6.4782202650       29.0860822303
  C         9.5407114860        4.5436085542       26.8689071171
  H        11.4446645556        4.6153857202       27.6945214200
  H        10.8987715870        6.2548291772       27.3200453406
  C         8.5105434101        5.5417892140       26.3789947733
  H         9.8918997168        4.1015242839       25.9626117251
  H         9.0784056635        3.8728410237       27.5354316252
  C         7.2962116910        4.8329531677       25.7179205165
  H         8.0760759350        6.0292506920       27.3156388608
  H         8.9942112237        6.2987698401       25.7573087868
  C         6.9282042630        3.4554315596       26.4466976150
  C         7.7232429702        4.1202231249       24.4604343424
  C         6.0284685113        5.6487202899       25.6831373419
  C         7.1347863941        2.3573231382       25.6441136259
  C         6.4969588371        3.1170229128       27.7771965003
  C         7.6879503686        2.7476995387       24.3964900871
  C         8.1565501785        4.7473860750       23.3104995763
  H         6.2585549266        6.5067965868       25.0294306900
  H         5.8684260639        6.0515307256       26.6881931429
  C         4.7924613797        4.9456555116       25.1839530140
  S         6.6707160131        0.8875420618       26.4021634124
  C         6.1565356943        1.8131798007       27.8034486486
  H         6.3641171494        3.9843317088       28.3750872677
  C         8.0506421145        2.1307482430       23.2493076968
  H         8.2963902107        5.8214475633       23.4677925135
  C         8.5395599958        4.1126292728       22.1626429964
  H         5.0522507297        4.5765230404       24.2474740109
  H         4.5887484784        4.1098703498       25.7812219877
  C         3.5013835948        5.7846600276       25.0972603303
  C         5.7596255877        1.0720111465       28.9759329471
  C         8.5510672560        2.7796037719       22.1070411088
  H         7.9999380623        1.0621960105       23.1985319419
  C         9.0495110758        4.4666572448       20.8980407879
  H         2.7872303832        5.3260839762       24.3892778222
  H         3.8087574216        6.6746966245       24.6322154475
  C         2.8168943570        6.1298716122       26.4789493394
  C         5.8732466773       -0.3427609261       29.1680821079
  C         5.4737425221        1.8359510487       30.2275651800
  C         8.8918819394        2.0332107783       20.8630403860
  C         9.2124228807        3.3774015322       20.1005829659
  S         9.3417904410        5.9972204004       20.1526860055
  H         2.1608102802        6.9599073973       26.3719736307
  H         3.6163899710        6.5141261136       27.1958966012
  C         2.0815999477        4.9262720394       27.0019027359
  N         6.3152835099       -1.2821060160       28.2243992608
  C         5.5585390060       -0.9322959409       30.3734211674
  C         5.0264074410        1.1881415542       31.3893793740
  H         5.3557162866        2.9037581982       30.1704770424
  C         7.7784840493        1.2589031744       20.0873760371
  C        10.2686782829        1.2602639123       21.0444063295
  C         9.5756560341        3.7242162853       18.7908679167
  C         9.6039533798        5.1297940141       18.6340723715
  H         1.3156773036        4.6441255821       26.2882471009
  H         2.8694586744        4.1331757387       27.1544109297
  C         1.4291708726        5.0422084018       28.3356941581
  S         6.2671627068       -2.7558177266       28.8982650755
  N         5.6466936956       -2.3239619421       30.3154022072
  C         5.1691873013       -0.2549985840       31.5483915599
  H         4.5887136031        1.7998246779       32.2174374073
  H         7.5821868411        0.3315082912       20.6213485106
  H         8.0857389287        0.8135933745       19.1014801567
  C         6.3800746494        1.9111382258       19.9877281411
  H        10.6277294017        0.9056382401       20.0943382864
  H        10.1946645645        0.4559533954       21.8150337652
  C        11.4748550774        2.1250155088       21.4152401264
  H         9.7540908541        2.9786549552       18.0630989555
  C         9.8931169062        5.8758986297       17.3298551073
  H         0.5500539844        4.4247912014       28.3552038021
  H         0.9346100919        5.9962344069       28.3236024525
  C         2.3286243403        4.9823140603       29.5642308660
  C         4.9328876759       -0.9549250556       32.7916425687
  H         6.4584238509        2.9846806430       20.2146722212
  H         5.7857245346        1.3494481547       20.7007023467
  C         5.6805325638        1.5475899768       18.7067813794
  H        11.3385903255        3.0356106028       22.0355877972
  H        11.8771823738        2.5555144678       20.4567411185
  C        12.6881445577        1.2914604193       21.9154486118
  C        10.0230477590        7.2580818124       17.2576346873
  C        10.0432254771        5.1861767338       16.0433813361
  H         2.7175878446        3.9304533779       29.6715542009
  H         3.1677364198        5.5664386634       29.2594201615
  C         1.5785721456        5.4347108311       30.8117684104
  H         4.8662708592       -2.0551881092       32.6858911414
  C         4.7901351513       -0.5386929948       34.1164663714
  H         5.6349880386        0.4723608361       18.5914201321
  H         6.3693108287        2.0226602794       17.9539214637
  C         4.2848190358        2.2088711884       18.4695606778
  H        12.3249083459        0.5876589549       22.6715669195
  H        12.9129523298        0.7629905580       21.0319204980
  C        13.8819516386        2.1649706797       22.2519827767
  N         9.7848839561        8.1337110392       18.3351409092
  C        10.3293722228        7.9820135943       16.1109107793
  C        10.4652355363        5.8754499994       14.8857725695
  H        10.0122817902        4.0633988188       16.1190952558
  H         0.6488358484        4.9196330299       30.9249669605
  H         2.2052960175        5.2611010033       31.7667881347
  H         1.3071645257        6.4899520222       30.7851956249
  S         4.6527028088        1.0952445181       34.6583893784
  C         4.6557076265       -1.5804589704       35.2178554064
  H         4.2751325441        3.2073515016       18.9182799950
  H         4.0854083261        2.5489235289       17.4244340513
  C         3.0681366316        1.4010186974       18.9758946399
  H        13.5363701029        2.9987766044       22.9041636896
  H        14.2735027810        2.5360276182       21.3526694793
  C        15.0601598028        1.4531870464       22.9087476694
  S         9.8924421016        9.6568806957       17.7924056499
  N        10.4163719262        9.3898864673       16.2784918997
  C        10.5389129397        7.3717319515       14.8850853572
  H        10.5324248764        5.2793524724       13.9490371367
  C         4.3704682796        0.3846866192       36.2870551973
  N         4.2799045262       -0.9212427057       36.3413884182
  O         4.7417824033       -2.7942182131       35.0876114808
  H         2.3419147114        2.1795641943       19.2723290061
  H         3.3978934391        0.9188258713       19.8816600150
  C         2.5659338257        0.4307260321       17.9587783952
  H        14.8374996917        0.5446690194       23.4766955023
  H        15.6817898804        1.0418890315       22.0904874155
  C        16.0327696249        2.4002155276       23.5815017312
  C        10.9805528362        8.1305426530       13.7200242608
  S         3.9753004985        1.2930971899       37.7761502275
  C         4.0556230247       -1.7299535985       37.5328841311
  H         2.1685099835        0.9233641642       17.0927754476
  H         3.2962326375       -0.1051714151       17.4838160361
  C         1.5375779871       -0.5675019439       18.5594278343
  H        15.5324244046        2.9336122863       24.3175392933
  H        16.3843919800        3.1458784462       22.8433178974
  C        17.2311003503        1.7603558205       24.2314631637
  H        10.8946192675        9.2048759493       13.8615851024
  C        11.4356806849        7.8609234862       12.4708322780
  H         3.3739805752       -1.3905447226       38.2313711307
  H         3.5606140442       -2.6592205890       37.2769364331
  C         5.3931920758       -1.8611909656       38.2538413193
  H         0.4967269700       -0.2184865035       18.6728034026
  H         1.6991315208       -0.8510752798       19.5985971061
  C         1.5176291142       -1.9024984805       17.8160149711
  H        17.4930510904        2.3464518662       25.0929481093
  H        16.9946116195        0.7192512841       24.5195622578
  C        18.4152144970        1.6888224401       23.2669435588
  S        12.1555735373        6.4103440595       11.8131337214
  C        11.5287210964        9.0567436907       11.5703422598
  H         6.1472668536       -1.2550921990       37.7903256655
  H         5.3146572217       -1.4522034506       39.2268303833
  H         5.9326343935       -2.7855691519       38.3593027807
  H         1.3342275958       -1.8505599014       16.7139330465
  H         0.8077602603       -2.5254764907       18.1509050925
  H         2.3955068499       -2.4529104361       17.9381745114
  H        19.3419671693        1.6132762308       23.8135525952
  H        18.5333416638        2.5614442873       22.8014382644
  H        18.2485179281        0.8920871019       22.5113374637
  C        12.4088575925        7.3650362914       10.3641942714
  N        12.1454611956        8.7140550437       10.4237742578
  O        11.1859014192       10.1875108433       11.8340736309
  S        13.2931962607        6.6336515455        9.0021697491
  C        12.2660058514        9.6183572117        9.2291911216
  H        12.4383337195       10.6469177874        9.5713159771
  H        13.1121311135        9.2377743391        8.7265292593
  C        10.9731901173        9.4076697878        8.3858450892
  H        10.0603110949        9.2655531337        9.0141338821
  H        10.6476695584       10.2421528915        7.8110956015
  H        11.0191482421        8.5679768847        7.7364472853
  H         2.7950837787        2.2517396967       13.6153221006
  C         3.5076247289        1.8684399438       12.9730812457
  H         3.6313324532        0.8048930036       13.1124434145
  C         2.7894274879        2.1778170495       11.6048131728
  C         4.9006862567        2.5730932808       13.0128736428
  C         3.6302927095        2.4661451560       10.3381807397
  H         2.1392038635        3.0726298787       11.8609891220
  H         1.9668404040        1.3988387557       11.3773483163
  H         5.3312978808        2.7987854651       13.9604090874
  H         4.7073491671        3.5686567649       12.6214901008
  H         5.7126467933        2.0143361404       12.4856769527
  C         4.4451175235        1.3093106874        9.9839673358
  H         2.9915186969        2.7079192931        9.4822446515
  H         4.3190933418        3.3415468384       10.5000531582
  C         5.1674715540        1.5299549066        8.6013796373
  H         3.8326565276        0.4218921605        9.8844308945
  H         5.2522555162        1.2130914537       10.7355396843
  C         6.3975050398        2.4155728203        8.8219333000
  H         4.5009437215        2.0839890420        7.9697713272
  H         5.3946325532        0.6076976399        8.1481879408
  C         7.6791358580        1.7224972495        9.3018181939
  H         6.4537179261        2.9693283821        7.9353997841
  H         6.2283218122        3.1656039274        9.6232341909
  C         8.9567562123        2.6250630439        9.5827913372
  H         7.8693666773        0.8718368365        8.6236599243
  H         7.5417793445        1.2840929621       10.3047527755
  C         8.5309948848        4.0215138890       10.2167833465
  C         9.4265373859        3.2865585428        8.2613375721
  C        10.1279675634        1.9362085351       10.2855429855
  C         8.8833603180        5.1148535026        9.4328398700
  C         7.9341418111        4.4754690458       11.3978930877
  C         9.3651652276        4.6482193892        8.2271991279
  C         9.8673005205        2.6452452090        7.0669008274
  H         9.8414085726        1.4666428179       11.1665316023
  H        10.5430291183        1.1893458818        9.6648885207
  C        11.2768838500        2.8011373105       10.7918445363
  S         8.5535168213        6.6619906609       10.1347416740
  C         7.9439024541        5.8155505663       11.5322804564
  H         7.5881517722        3.6779237339       12.0631456722
  C         9.8121455404        5.3127012367        7.1326590502
  H         9.9379725024        1.5211204607        7.1249489714
  C        10.2712319338        3.3338535308        5.9589294362
  H        10.9676775764        3.6243068079       11.4140632092
  H        11.5435655046        3.3307958292        9.8844146158
  C        12.3958080941        2.0532819842       11.5120902322
  C         7.5361465488        6.4996324484       12.8066334030
  C        10.1438627015        4.6631293720        5.8831818703
  H         9.9078364248        6.4365614235        7.1164854002
  C        10.7961047339        2.9881763343        4.7003632658
  H        13.2647061240        2.6953729585       11.4712146686
  H        12.6623483395        1.1190007065       11.0576546155
  C        12.1517951826        1.8112073984       12.9374910797
  C         7.5634356884        7.8961858864       13.0990444281
  C         6.9962737922        5.6728305926       13.9433353675
  C        10.4932031706        5.3970916683        4.6033185012
  C        10.8635995915        4.0717846484        3.8544025010
  S        11.0399067547        1.4438559584        3.9784259674
  H        11.6881779380        2.6074554485       13.4678973481
  H        11.6349071730        0.9145041449       13.0680458083
  C        13.4492451490        1.5260786091       13.7677902647
  N         7.8929519520        8.8710660171       12.1876120300
  C         7.4267468521        8.4415707371       14.3627010498
  C         6.7262027128        6.2656590725       15.1954643254
  H         6.6754738551        4.6656293137       13.7276458358
  C        11.7893732022        6.2089215107        4.7616612108
  C         9.2581127753        6.1164744181        3.9989376943
  C        11.1424388917        3.7099704123        2.5211299846
  C        11.1929282629        2.3070139206        2.4471096933
  H        13.9610504354        2.4861713557       14.0017320128
  H        14.1950723412        0.9573239447       13.2262683334
  C        13.1064314986        0.7862958289       15.0707928392
  S         7.9897535687       10.3168925732       12.9036572432
  N         7.6669401953        9.8179473307       14.3756884310
  C         6.9470205634        7.6989647829       15.4400908992
  H         6.2887383964        5.6284627267       15.9595965056
  H        11.6243597653        6.7746814817        5.6246543573
  H        11.8981527170        7.0327056682        4.0541826546
  C        13.0803960689        5.3515033932        4.8866018162
  H         9.0798101474        6.9972607881        4.5349160713
  H         9.5355089252        6.4912723713        2.9526693863
  C         7.9862802362        5.2455003377        3.8630484618
  H        11.1451225653        4.3824754874        1.6881990881
  C        11.5385212742        1.4626531030        1.2313196467
  H        12.5462648567       -0.1536750427       14.8802421793
  H        14.0343134540        0.3497028526       15.4337991349
  C        12.3429066283        1.6408091648       16.1175150611
  C         6.7236783866        8.3211321553       16.6672432834
  H        12.9343179085        4.3676439417        5.3558994663
  H        13.4230408684        4.9696091286        3.8596201796
  C        14.3404968600        6.0081375965        5.4801550769
  H         7.5819759955        4.8446888713        4.7894136376
  H         8.1538989424        4.4052404767        3.1881930258
  C         6.9059060098        6.0285573951        3.1859792766
  C        11.7733942971        0.0963840781        1.1748941140
  C        11.7856907979        2.2308214707       -0.0355892463
  H        11.3896738589        1.1565721569       16.4404782746
  H        12.0352185610        2.6550429769       15.8849542047
  C        13.1563354396        1.8046709499       17.3622154498
  H         6.8296726461        9.4244717417       16.6334085485
  C         6.5577924392        7.8058608940       17.9281422837
  H        14.1038653844        6.9038288591        6.0390048390
  H        15.0764202521        6.3197642399        4.6772901197
  C        15.2182447915        5.0300485554        6.2911295822
  H         6.8222022448        6.8579984091        3.8571346829
  H         7.3060253099        6.4126009901        2.2516739237
  C         5.5498605330        5.3070581873        3.0181105946
  N        11.4401128207       -0.7896653710        2.2194164740
  C        12.0690411642       -0.5346434397        0.0289511542
  C        12.2483587356        1.5341144658       -1.1689472408
  H        11.5955598681        3.2493744509       -0.1670998296
  H        12.7264967133        1.1963500343       18.2167579568
  H        13.3307413484        2.8572003382       17.5380709209
  H        14.1049431588        1.4332898380       17.1431813703
  S         6.3609293810        6.0824706959       18.3765021823
  C         6.5660851616        8.7652231486       19.0312516336
  H        15.3041485468        5.4774797536        7.3649207367
  H        14.7510806811        4.0958535329        6.6020216655
  C        16.7297186533        4.9953152708        5.7836847148
  H         5.1190795523        5.0113290400        4.0283591512
  H         5.7263920955        4.4441420377        2.3611621089
  C         4.4596087616        6.1439843960        2.3518092820
  S        11.5609047887       -2.3118822421        1.6371100218
  N        11.9335112199       -1.8850519498        0.0880951166
  C        12.3665766998        0.1198271463       -1.1884190257
  H        12.3465958259        2.0435850495       -2.0982796296
  C         6.1705161843        6.7321279084       20.0297570020
  N         6.3018140134        8.0989229495       20.1458187622
  O         6.8180772857        9.9686685336       18.8487066963
  H        16.6156224577        4.3609738949        4.8808344948
  H        17.0516120831        6.0067589450        5.4748673901
  C        17.7590177282        4.3626329358        6.7153607931
  H         4.7382344409        6.2473256209        1.3529735910
  H         3.5830649700        5.5642285410        2.2478749777
  C         4.1178198463        7.4919048001        3.0920414706
  C        12.6674628757       -0.6088273021       -2.3124245796
  S         5.7352586009        5.8065356778       21.4596731541
  C         6.2648363886        8.7307716631       21.4696126183
  H        17.1982706795        3.7663040672        7.4846310448
  H        18.3466561266        3.6350566976        6.2166091002
  C        18.5882060233        5.3777761206        7.4265426360
  H         4.6803491270        7.5153756816        4.0395788935
  H         3.0415907852        7.5812623343        3.3179100231
  C         4.5119564866        8.7384367718        2.3201808884
  H        12.4909739588       -1.7366872448       -2.2193507209
  C        13.1687039906       -0.3032250390       -3.6114219073
  H         5.3780806492        8.3361766609       22.0704408285
  H         5.8996655011        9.7978124324       21.3679432509
  C         7.6550898345        8.7570672593       22.0832831276
  H        19.1068831105        4.9776189215        8.2977685483
  H        17.9724202891        6.2140200862        7.7906533091
  C        19.5916456886        5.8946382941        6.4186010426
  H         4.2869153067        9.6174491785        2.8542232466
  H         5.5541283110        8.8042388858        2.2341922639
  C         3.8103785164        8.9797252845        0.9789277335
  S        13.7048448357        1.2215240093       -4.2067873277
  C        13.2976957771       -1.3694527857       -4.6458497229
  H         8.2694024094        7.9455345197       21.7017482861
  H         7.6390940712        8.7722120539       23.2238282421
  H         8.1405456272        9.6808366763       21.8111423927
  H        20.1742371618        5.0686313728        6.0730377926
  H        19.1767667017        6.3500452325        5.5442430384
  H        20.3484768607        6.4599664180        7.0661651757
  H         4.0287651290        9.9856442417        0.6571874581
  H         4.1550774534        8.2940539331        0.1716533610
  H         2.7866957258        8.8547552885        0.8861062035
  C        14.1711109079        0.4270445978       -5.6168625389
  N        13.7913862150       -0.8661858947       -5.7587564946
  O        12.7215760805       -2.4052499346       -4.4071717378
  S        14.7976028248        1.3946959299       -6.9445315608
  C        13.9177187177       -1.6399048492       -7.0067702377
  H        13.8541098021       -2.7126444225       -6.7934755108
  H        14.9644521771       -1.4987641175       -7.3200696840
  C        12.9557269345       -1.0817376433       -8.1387752789
  H        12.0378128453       -0.8327507972       -7.5820768823
  H        12.6561719728       -1.8541294800       -8.9081388281
  H        13.4083958447       -0.2253994285       -8.6814043141
