352
 i =   115300, time =    57650.000, E =       100.2102458115
  H         9.4454552170        4.5616978154       31.5475649239
  C         9.9008731240        5.4943750966       31.8939032831
  H         9.1821184419        6.2663891641       31.9158489529
  C        11.0491706684        5.8119821789       30.9297842637
  C        10.3117753784        5.1342518697       33.3370905399
  C        10.3366162702        6.3646240561       29.6806766425
  H        11.7738541802        6.5029296081       31.3291988828
  H        11.6909643849        4.9570366098       30.6568598668
  H        10.6784131289        5.9741718504       33.9611469148
  H         9.4573418285        4.6477073714       33.8672961285
  H        11.1761516621        4.5232634592       33.3341558853
  C         9.8565140800        5.2961307464       28.7149876151
  H        11.1034425441        6.8722513128       29.1471280843
  H         9.5394440983        7.1126209885       29.8491630157
  C        10.1907787392        5.4373685921       27.2551553922
  H        10.2634363287        4.3574623286       29.0996849083
  H         8.7355372835        5.0748179617       28.8430079726
  C         9.0266030049        4.9732566798       26.3740796097
  H        11.0557760839        4.9567841986       26.9908223065
  H        10.3947703957        6.4458115060       27.1229040616
  C         7.7627237386        5.8781731874       26.3994150246
  H         9.2963723950        4.6719138912       25.3477847928
  H         8.7691383852        4.0306819134       26.8097412756
  C         6.5824750511        5.1801021221       25.6482174935
  H         7.4710851223        6.1673868565       27.3965088519
  H         7.8758958380        6.8067379082       25.7865403697
  C         6.2611309774        3.8411904690       26.3205382488
  C         7.0263761578        4.4305831088       24.3573825360
  C         5.2803775741        6.0342848717       25.5014439680
  C         6.5581140889        2.7452567895       25.5104069630
  C         5.7396622793        3.4709542750       27.5767692618
  C         7.0185079406        3.1014933971       24.2560750904
  C         7.6252503355        5.1161001580       23.3237927756
  H         5.5088175330        6.7725046425       24.7531513583
  H         5.0864264739        6.5350557400       26.4346141290
  C         4.1055311459        5.1705279621       24.9686542502
  S         6.2894944233        1.2449131457       26.3051972221
  C         5.8091147752        2.1143979722       27.7199779358
  H         5.3862262980        4.2790037273       28.2835771834
  C         7.4140511871        2.4550142998       23.0915666367
  H         7.6003264491        6.2056077940       23.3173444131
  C         8.0904795274        4.4829411712       22.1638575869
  H         4.3566898579        4.8827823666       23.9770902844
  H         3.9047885312        4.2006586127       25.5334605880
  C         2.8706669615        6.1299938389       25.0137713891
  C         5.3148338672        1.3042430964       28.8876844018
  C         7.9817276497        3.1409445102       21.9976045885
  H         7.4082250672        1.3821997974       23.0165455375
  C         8.6823518676        4.9396723682       21.0418726463
  H         2.2037747835        5.7533874710       24.2371179169
  H         3.1966232792        7.1003783826       24.5140821122
  C         2.1871842613        6.2514802049       26.4531612180
  C         5.3323250479       -0.0815546427       29.0397655496
  C         4.8673821727        2.0624129616       30.1482459334
  C         8.4170492497        2.5222993437       20.7348332497
  C         8.8675116698        3.8868074067       20.1583241249
  S         9.0002671145        6.4709003662       20.3118450011
  H         1.2733012451        6.7386869240       26.2496805176
  H         2.7135817378        6.9545303201       27.1127761567
  C         1.9258451765        4.8755638809       27.1412231680
  N         5.5628023066       -0.9760687792       28.0040171104
  C         5.0728615147       -0.7188694979       30.2333792876
  C         4.6281183558        1.4509217576       31.3105039934
  H         4.8049508735        3.1410108923       30.1300712781
  C         7.3716168296        1.8037489232       19.8859844302
  C         9.6369050354        1.6021617762       20.9489279357
  C         9.2454972870        4.2945118760       18.8684088981
  C         9.4368564728        5.6653029096       18.8219912060
  H         1.5349633638        4.0888532313       26.4097320397
  H         2.9565645127        4.4669536264       27.2929566608
  C         0.8959995885        4.9015235424       28.2335932435
  S         5.6215446992       -2.4671819744       28.6256994826
  N         5.2457387090       -2.1272324608       30.1617337346
  C         4.7117625029       -0.0467503129       31.3849974253
  H         4.2820165292        2.1568121455       32.1381014304
  H         6.7741241775        1.2890940616       20.5789509695
  H         7.8148636571        0.9788906041       19.2745506669
  C         6.4179299424        2.7473915362       19.1388688608
  H         9.9224892164        1.0544478060       20.0961680536
  H         9.2862911741        0.8196273982       21.6369856668
  C        10.8886273849        2.3227348243       21.4924738190
  H         9.4230974030        3.5446261645       18.1412364375
  C         9.7800935235        6.4253615319       17.5923127241
  H         0.6778610610        3.8393160085       28.4532800505
  H        -0.0519443891        5.3047123816       27.8672591156
  C         1.3407995629        5.6672432723       29.4492923529
  C         4.4403800434       -0.7263527846       32.6123451740
  H         6.9820464014        3.1783312908       18.3577577441
  H         6.1045830879        3.6144600436       19.6536306178
  C         5.1862232213        2.0504716944       18.5655095636
  H        10.5747917189        2.9489843980       22.3122421558
  H        11.2417067824        2.9675105858       20.6967489262
  C        12.1368212455        1.4850559145       21.7705643105
  C         9.8240297059        7.8437214774       17.4617127796
  C        10.1792701413        5.6980862066       16.3760439089
  H         1.2804735839        6.7101490907       29.2363610419
  H         0.7211253938        5.4479706112       30.2857818613
  C         2.7828350836        5.4478686763       29.9193260085
  H         4.5422974475       -1.7766290503       32.6236922557
  C         4.2045669797       -0.3286018810       33.9335034086
  H         4.5148438562        1.9050480355       19.3799961825
  H         5.4677891116        0.9905006292       18.3786344907
  C         4.3848622352        2.7329239733       17.5089909905
  H        11.8239210203        0.6292067501       22.4159623797
  H        12.6844654000        1.1409949926       20.8146266624
  C        13.2148257834        2.3785131844       22.6001414037
  N         9.5948539393        8.7058947473       18.4968410928
  C        10.0929907777        8.4800748644       16.2062195349
  C        10.6316084528        6.3129185052       15.1700843893
  H         9.9690813472        4.6115640557       16.3611484567
  H         2.9386482557        5.7387398564       30.9409057512
  H         3.0564398354        4.3965787198       29.6913083261
  H         3.3958848766        6.1082462613       29.2651247788
  S         4.0515273641        1.2746846065       34.5141953121
  C         4.2314124976       -1.4135774270       34.9748613329
  H         4.5033386600        3.8272644614       17.5891307398
  H         4.9544420194        2.6004340093       16.6149137179
  C         2.8771561639        2.2143913933       17.3243231897
  H        12.9042088917        2.8205980643       23.5217544877
  H        13.4394777439        3.2385027048       21.9664679060
  C        14.5969823415        1.7693462806       22.7838714603
  S         9.5287271589       10.2785090682       17.9109689716
  N        10.0994356856        9.8578368820       16.3870385834
  C        10.4929023947        7.8153135334       15.0300629602
  H        10.8644023579        5.6756529107       14.3294591320
  C         3.8752739209        0.5298537184       36.1250830037
  N         3.9392932814       -0.7949833381       36.1325890818
  O         4.3981161151       -2.6104828108       34.8274117350
  H         2.4366028217        2.7799388725       16.4724924012
  H         2.2884900606        2.5460386169       18.1746402315
  C         2.8646158675        0.6504209014       17.1265821898
  H        14.9441172538        1.9533030889       23.8011604239
  H        14.6646257492        0.6709097972       22.7806708744
  C        15.5786563579        2.4138548109       21.8037324519
  C        10.7294556076        8.5478906050       13.8805435176
  S         3.4168037916        1.5003311315       37.5051496653
  C         4.1016187178       -1.5365181519       37.3972603426
  H         2.2657285078        0.6103245458       16.2191666287
  H         3.8776830800        0.3542031025       16.8474620219
  C         2.1990414899       -0.0964662853       18.2604972505
  H        15.7045327785        3.4391350820       22.0077716820
  H        15.0479671003        2.3984166204       20.8664624402
  C        16.7954661650        1.6355979522       21.5949424074
  H        10.3650346530        9.5870907295       13.9637756987
  C        11.3260983947        8.1638166078       12.7229778675
  H         3.4445738684       -1.1267138979       38.1483152163
  H         3.7283339045       -2.5542854954       37.1807018106
  C         5.5261243031       -1.4748757550       37.9064819964
  H         1.2992485812        0.4513136111       18.4709820687
  H         2.7589530480       -0.0534567133       19.2280672997
  C         2.0086262260       -1.6195950376       17.9945075885
  H        16.5606510217        0.6130562285       21.3335886783
  H        17.3328878833        2.1223435998       20.7149730408
  C        17.4740119454        1.8368303252       22.8846500137
  S        11.7312051735        6.5822664522       12.1724894109
  C        11.5441009061        9.2141894129       11.7292972724
  H         5.7804371009       -2.3972934513       38.3503619897
  H         6.2482958906       -1.1581685269       37.0833525251
  H         5.5938187826       -0.7726771324       38.6875527483
  H         1.3682059124       -1.9371992554       17.1117501323
  H         1.5442541623       -2.0551397181       18.8727770971
  H         2.9998527931       -2.0827494659       18.0172300145
  H        17.1394801309        1.0584156420       23.5646587874
  H        17.3030201242        2.8231665884       23.4199504214
  H        18.5279264890        1.6406461266       22.7848414383
  C        12.3945454793        7.3577796796       10.7274725232
  N        12.1023351239        8.6940974890       10.6756225394
  O        11.0434950430       10.3359597205       11.8372974157
  S        13.0155359763        6.5282176586        9.2810704985
  C        12.2381022063        9.5006642824        9.4731673310
  H        12.5755144391       10.4983861269        9.6031633126
  H        12.7825700212        8.9136702603        8.7402450273
  C        10.8836804414        9.5674721082        8.7370602945
  H        10.1156400156       10.0672009462        9.3285043985
  H        10.9209634950       10.0309058188        7.7533551474
  H        10.4908218626        8.5155162419        8.7251637130
  H         2.9322056496        3.7361154300       12.4872337418
  C         2.8502525673        2.6520812843       12.5376717715
  H         1.9681204032        2.4562766185       13.1407641242
  C         2.6528438466        2.1738924296       11.1250281849
  C         4.0784800519        1.9086809322       13.2188601162
  C         3.6529957091        2.6962792101       10.1439950953
  H         1.6214924965        2.5123308175       10.8147945497
  H         2.6520417868        1.0824322771       11.1884329040
  H         4.6943714902        1.5139412161       12.4380169165
  H         3.7281046903        1.2299841023       13.9852796380
  H         4.7009765497        2.6681869766       13.7172481497
  C         4.3540741619        1.4203381953        9.5395386090
  H         3.1508163288        3.2341484435        9.3312111215
  H         4.3383835622        3.3772295613       10.6093027394
  C         5.2508066650        1.5867887296        8.2430710496
  H         3.5862392114        0.7229143584        9.1867438210
  H         4.8208356372        0.8056089347       10.3365163096
  C         6.4820285759        2.4654719857        8.3911970242
  H         4.6268081491        2.1545694634        7.5877730728
  H         5.2915448548        0.6835052020        7.6171905287
  C         7.6912219228        1.6852935153        9.0111488506
  H         6.8305734742        2.9023806560        7.4601034532
  H         6.2779904872        3.2973554400        9.0198050646
  C         8.8659017827        2.5915710145        9.3936650126
  H         8.0362723308        0.8464318234        8.2880450903
  H         7.3478173626        1.2254469505        9.9499432127
  C         8.4551073797        3.9524346612       10.0248167070
  C         9.3760383043        3.3156317817        8.1054537522
  C         9.9390852709        1.9056137351       10.1731315925
  C         8.8471104409        5.0662443758        9.2647818937
  C         7.9021879057        4.4178672885       11.2004312697
  C         9.4067221575        4.6683337458        8.0457059105
  C         9.7770817009        2.6634787779        6.9242224734
  H         9.5755553183        1.6263108754       11.1343000481
  H        10.0754786452        0.9509498455        9.6238815640
  C        11.2266693633        2.7714069224       10.3042959982
  S         8.5111959834        6.6207400243        9.8950308638
  C         7.9014299266        5.7443513117       11.2916287468
  H         7.5890080741        3.5755278424       11.9110431345
  C         9.8257296658        5.2695057668        6.9016988456
  H         9.8024959092        1.6074856390        7.0141109513
  C        10.1914282346        3.2980793465        5.8011149262
  H        11.0266292545        3.8459146856       10.5120286555
  H        11.7998344412        2.7981725648        9.4002824363
  C        12.1371389908        2.2143623544       11.4492628025
  C         7.4885952076        6.5162289161       12.5348107532
  C        10.1754832229        4.6803755646        5.6730097144
  H         9.9138513841        6.3747001266        6.8718851251
  C        10.6434267358        2.9274806136        4.5711060638
  H        13.2065386711        2.2612210487       11.1760901836
  H        11.8248218060        1.1952365328       11.5063274032
  C        11.8677117448        2.8436768449       12.7805121538
  C         7.4595676790        7.9422370425       12.6739019039
  C         7.0720237486        5.7704966007       13.7840666524
  C        10.7038938225        5.3795925468        4.4157967978
  C        10.9429222682        4.0133071144        3.7754911209
  S        11.0135649025        1.4273783078        3.8501067219
  H        12.2055470847        3.8529757011       12.8868706691
  H        10.7673433489        3.0315661741       12.8573604242
  C        12.5530534433        2.0129993205       13.8396466520
  N         7.8223365136        8.7900713568       11.6409450897
  C         7.1660678896        8.6564309578       13.7950320246
  C         6.6242396033        6.4330167497       14.9040203371
  H         6.9528714389        4.6953092932       13.8062240824
  C        11.9851552986        6.2085362324        4.5914343868
  C         9.5270233098        6.0826880808        3.5991337228
  C        11.4506694244        3.5757850877        2.5666941967
  C        11.4958434991        2.2212817738        2.4220349702
  H        13.5875831192        2.3426580103       13.7230792657
  H        12.4200408859        0.9218379902       13.6256185139
  C        12.0727491127        2.3467982995       15.2964530780
  S         7.7154581482       10.3487941641       12.1436996306
  N         7.2425706648       10.0291309226       13.6362781957
  C         6.8864096243        7.9357916127       14.9845030185
  H         6.2338460202        5.8595340887       15.7165949591
  H        11.7970394985        7.1868683286        5.1059839781
  H        12.3421112577        6.5198983097        3.6409037757
  C        13.0997627258        5.4707789260        5.3343708086
  H         9.1516314311        6.9491186266        4.1054830262
  H        10.0395533711        6.5342890537        2.7686469429
  C         8.4606370874        5.1814965201        2.9169260926
  H        11.8300068472        4.3933766130        1.8505541382
  C        11.7234233466        1.3811072297        1.1794418636
  H        11.7089403274        3.4010199085       15.3601536700
  H        11.2163699165        1.6079303684       15.5206208392
  C        13.1286195374        2.1215516634       16.2957462961
  C         6.7021729702        8.6824247739       16.1781157432
  H        12.7825085861        5.4232196384        6.4050592519
  H        13.2009881561        4.4402427258        5.0281316679
  C        14.3942967335        6.3032458471        5.1931303355
  H         8.2153369786        4.3144745333        3.4973375716
  H         8.8767677699        4.8035020207        1.9576277010
  C         7.1342391182        5.9423365213        2.7104590136
  C        11.5477270210       -0.0257022829        1.0263196397
  C        12.0936062150        2.1187605831       -0.0529501816
  H        13.9811388173        2.6433018466       15.8565207099
  H        13.3480890655        1.0350882254       16.2271337400
  C        12.7532587738        2.3984155183       17.7481953872
  H         6.8534936048        9.7380631274       16.0888234303
  C         6.3738144393        8.3362899229       17.4729781566
  H        14.2166130646        7.4004838144        5.1428570685
  H        14.8917951460        6.0218449066        4.3027885557
  C        15.4599467856        6.0432692947        6.2656840279
  H         6.3336725487        5.2194950694        2.6426361877
  H         6.8932453278        6.5388614310        3.5476470879
  C         7.1515161348        6.7584016418        1.4441196574
  N        11.2823877162       -0.9126424082        2.0695931310
  C        11.8573087103       -0.6806964946       -0.1883434851
  C        12.3208852298        1.4295262859       -1.2510883105
  H        12.1362454494        3.1629981328       -0.0567359333
  H        13.5031372134        2.0936166016       18.5255290885
  H        11.7765768098        2.0044667408       18.0396839766
  H        12.5950984360        3.4645055852       17.8668088661
  S         6.1425686965        6.7981568826       18.2452147795
  C         6.2975449909        9.4439932373       18.4777488357
  H        15.7877526385        6.9956644640        6.5883456818
  H        14.9727793904        5.5748887112        7.1224854724
  C        16.6364995043        5.3517675980        5.6776766796
  H         7.5364305328        6.1476534080        0.6059427411
  H         7.7699327972        7.6365821051        1.6532097520
  C         5.7524546630        7.3346513620        1.0542788649
  S        11.2790774037       -2.3579474648        1.4227881471
  N        11.7667648941       -2.0350629142       -0.1004336163
  C        12.2970854038       -0.0782181924       -1.3939261557
  H        12.5267705083        2.0518803052       -2.1260372912
  C         5.9488084643        7.6535819155       19.7782016963
  N         5.9730260820        9.0121021224       19.6496238369
  O         6.4891799579       10.6031951145       18.2058300025
  H        16.4362988981        4.6865947323        4.8633049608
  H        17.2803939808        6.1592160420        5.2794211637
  C        17.4257475161        4.6205108911        6.7150106523
  H         5.9739918329        7.8147417972        0.0905367782
  H         4.9905158237        6.5324023563        0.8482915230
  C         5.2347156513        8.3970916868        2.0019301695
  C        12.5691933875       -0.8662740494       -2.5714961000
  S         5.4810020170        6.9568939036       21.2954413022
  C         5.8841283519        9.8565379151       20.8645763111
  H        16.6700090882        4.3029942095        7.3986964673
  H        17.8807801532        3.6922761252        6.2909650617
  C        18.4984126375        5.5084348624        7.4735126283
  H         6.1047238002        9.0486410644        2.3267844469
  H         4.9846511950        7.9246100830        2.9189345877
  C         4.1235720788        9.3338226483        1.4020702841
  H        12.2383607450       -1.8575766703       -2.3746072381
  C        13.2377300878       -0.6027333652       -3.7465651100
  H         5.0041453449        9.5635914647       21.5235794580
  H         5.6781290220       10.8248609622       20.3867498591
  C         7.1969300028        9.9379875412       21.6287142655
  H        18.8286978259        4.9323412304        8.3243364444
  H        18.2422841092        6.5191068172        7.7422881256
  C        19.7532033260        5.6238736458        6.7035202305
  H         4.6239134621       10.2666699202        1.0182242473
  H         3.6217728664        8.8881797176        0.5562335906
  C         3.0542043304        9.7535244934        2.4731038883
  S        14.0118814010        0.8274709620       -4.2156304344
  C        13.3129196386       -1.6639342488       -4.8267624295
  H         7.8939575282        9.8656808239       20.8092584734
  H         7.3306897516        9.0652141938       22.3283507888
  H         7.4004523144       10.8761467398       22.1576608292
  H        19.6129310627        6.4318888118        6.0116863893
  H        20.5507455780        5.9861242508        7.3880365266
  H        20.1158288794        4.6976847481        6.1085042815
  H         2.3327004243        8.9272770356        2.4990230201
  H         3.5733841498        9.6805119732        3.4272500232
  H         2.6457435795       10.7270971490        2.4041510372
  C        14.2886526049        0.1210977758       -5.7980637324
  N        13.9315085979       -1.1951392184       -5.9157822315
  O        12.8319969777       -2.7827698160       -4.7251943755
  S        15.0072042700        1.0497521537       -7.1907282494
  C        14.0433250567       -1.9454611191       -7.1623032857
  H        14.3735551489       -2.9963979108       -6.9621219780
  H        14.9031644712       -1.3831668671       -7.6382762188
  C        12.8694945181       -1.7975114690       -8.1402985866
  H        12.9658305739       -0.9531184056       -8.6949539696
  H        11.8430753754       -1.8898198480       -7.7621846711
  H        12.9011830661       -2.6603362424       -8.8198163699
