352
 i =   105000, time =    52500.000, E =        99.9800476507
  H        10.2310184386        4.5728142143       31.6209512570
  C        10.7610263588        5.4036129024       32.0704143290
  H         9.9304847910        6.1013572214       32.2057955553
  C        11.7628522094        5.8687408976       31.0292886432
  C        11.3187701600        5.0142329786       33.4216962977
  C        11.0704481973        6.1464222866       29.6984638572
  H        12.3684530466        6.7299467145       31.4259316016
  H        12.4728643974        5.0263549328       30.9202683023
  H        10.6297935803        4.5136815719       34.0373371139
  H        12.0833831161        4.2209729342       33.2751495182
  H        11.7451347319        5.8266665450       34.0283151469
  C        11.0049958322        5.0559454245       28.6863928427
  H        11.5775030569        6.9757058670       29.2892304849
  H        10.0721057273        6.4132433912       29.9759583598
  C        11.0936253645        5.4567827278       27.2134165623
  H        11.7477761453        4.4122846914       28.8114846367
  H        10.0411553630        4.6039651072       28.9019865412
  C        10.0025991449        4.7768299536       26.3546484816
  H        12.1053089892        5.1614234599       26.7551583574
  H        11.0166670833        6.4972489219       27.0215489588
  C         8.7816129304        5.6142723459       25.9923381122
  H        10.3800530969        4.3146881947       25.4547263843
  H         9.7322976747        3.9666118200       26.9887122232
  C         7.5937280844        4.8141908887       25.3628805828
  H         8.3615766637        6.0494651206       26.9306838232
  H         9.0598563342        6.5118131836       25.4670577990
  C         7.3422367556        3.4367850354       26.0258009725
  C         8.1318614143        4.1874867567       24.1235606351
  C         6.3128776005        5.8099426724       25.3447004771
  C         7.4297111332        2.4024527456       25.1593938212
  C         6.8018800883        3.0384428221       27.2848240200
  C         7.9772519673        2.8279603209       23.9721799098
  C         8.5436287302        4.8903948769       22.9740506676
  H         6.5974011667        6.7802556238       24.8875550778
  H         6.1422053277        6.1076215445       26.3247500315
  C         5.0723194090        5.3344947138       24.6529604757
  S         6.9397421209        0.8596493571       25.8606255500
  C         6.5805395334        1.7016164546       27.3538726955
  H         6.6389375838        3.8230373317       28.0360314201
  C         8.3353105200        2.2553562336       22.7516490850
  H         8.7577067022        5.9475277855       23.0080426368
  C         8.8373351924        4.2559553147       21.7913560721
  H         5.2639997349        5.2147357275       23.5922556886
  H         4.8682356477        4.3660771000       25.0837129142
  C         3.7906877457        6.2263473764       24.8226038678
  C         6.2287482294        0.9476532214       28.5824932718
  C         8.7856673430        2.9331408103       21.6654365679
  H         8.5159393072        1.1643302099       22.7351313052
  C         9.3237381774        4.7039355526       20.5954144051
  H         3.0181463206        6.0451342747       24.0051297893
  H         4.0223788933        7.2260931445       24.6321017788
  C         3.0867121218        6.0369179942       26.1855862976
  C         6.3071332877       -0.4625727676       28.7350412175
  C         5.7108953830        1.6396610886       29.8090905362
  C         9.3519836316        2.3081370453       20.4140602455
  C         9.5562101542        3.6740427088       19.6914390462
  S         9.5466219281        6.2035188536       19.8795382966
  H         2.2764917692        6.8128648000       26.2101218660
  H         3.7426586017        6.2420568542       27.0045741652
  C         2.3184443569        4.7776667246       26.4678049791
  N         6.6450957850       -1.3327448183       27.6990834317
  C         6.0257280699       -1.0870761945       29.9794924908
  C         5.6308062959        1.0449326085       31.0309659542
  H         5.2280880344        2.6188882461       29.7211828569
  C         8.2601453616        1.4744173510       19.6648788412
  C        10.6809509446        1.4443039676       20.5737782890
  C         9.8603246830        4.1102627991       18.4211597617
  C         9.9406334073        5.4467915078       18.4161910462
  H         1.7790988967        4.4044323669       25.5785256665
  H         2.9264510267        3.9752653761       26.6112076991
  C         1.3958027220        5.0127171223       27.6603730331
  S         6.4896457609       -2.8712168551       28.3216818630
  N         6.0863376162       -2.5060133314       29.8549894733
  C         5.8448554046       -0.3913888901       31.1476796574
  H         5.3666822320        1.6867238749       31.8619033515
  H         8.1514727688        0.5824419869       20.2559375864
  H         8.6821938300        1.1942345621       18.7435496759
  C         6.9556593848        2.2482275686       19.4214639971
  H        10.9694886537        0.9956194041       19.6178781022
  H        10.6163695289        0.5836817893       21.2083445670
  C        11.8275450261        2.3392756438       21.0348676996
  H        10.0003548798        3.4538436587       17.6368993713
  C        10.2138781297        6.2806032864       17.1856889518
  H         0.6277480219        4.2172949438       27.5787660099
  H         1.0034546479        5.9836966458       27.7216002315
  C         2.1433536222        4.9012619046       29.0303352527
  C         5.7380923012       -1.0919059331       32.3811128181
  H         7.2633535890        2.7929530658       18.5689093534
  H         6.5267422364        2.9308794891       20.2829741014
  C         5.8192883533        1.3226643091       18.9886845443
  H        11.5503428210        2.7508104237       21.9884168926
  H        11.9426126233        3.1928278443       20.3707717223
  C        13.1780766016        1.5995333447       21.0772949350
  C        10.2067679238        7.7127830659       17.1244203434
  C        10.2728115620        5.6485828785       15.8733776062
  H         2.6339029045        3.9759729667       29.1358221732
  H         2.9413968988        5.6320532272       29.1615926836
  C         1.2919820069        5.0482210121       30.3079731826
  H         5.8148004173       -2.1564571701       32.2074974031
  C         5.3991804037       -0.6891087753       33.6831465430
  H         5.4220776367        0.8446606146       19.8816980058
  H         6.2285768731        0.4984808042       18.4233365191
  C         4.7784514630        1.9901783378       18.1169302758
  H        13.1748299063        0.7610987800       21.6564978408
  H        13.4759732940        1.3082449555       20.0842280965
  C        14.3510689877        2.4863552603       21.5416231847
  N        10.0418502535        8.5993951577       18.1731376171
  C        10.3945159524        8.4315403648       15.9346373666
  C        10.3841466561        6.3472117134       14.6680921854
  H        10.2375621452        4.6054020545       15.8034215234
  H         1.9003303683        4.7623714631       31.1763521678
  H         0.8489742425        6.0677091161       30.5818353263
  H         0.4773018137        4.3580342742       30.3332156422
  S         5.0603281194        0.8406419020       34.2850391287
  C         5.2466874749       -1.7935147361       34.6013949473
  H         4.7387557735        3.0467355555       18.3909569635
  H         5.2220423357        1.9582623111       17.0984559097
  C         3.4135301998        1.2754236731       18.1351081873
  H        14.1855019744        2.9629309014       22.4523892517
  H        14.5749385899        3.3785104614       20.8995637285
  C        15.7872663878        1.7908440630       21.7444993941
  S         9.9253020898       10.1410449957       17.6316833144
  N        10.2917688838        9.8319238001       16.0983373666
  C        10.6036282992        7.7922630186       14.7226415374
  H        10.3509400802        5.8087884546       13.7223320382
  C         4.9130055040        0.0356638822       35.8068537719
  N         4.8006444020       -1.3255990146       35.7156115231
  O         5.4124877808       -2.9973121093       34.3280572747
  H         2.6075063109        1.8232835246       17.6393517598
  H         3.2287366093        1.3688011564       19.2398708464
  C         3.4520100811       -0.2148920293       17.8644054419
  H        15.7034224859        1.0367878827       22.5274779000
  H        16.0068623919        1.2730987624       20.7941990646
  C        17.0329888306        2.7372283845       22.0295534796
  C        10.9695910911        8.5911881437       13.5547637572
  S         4.3890918372        0.8744421378       37.2265108637
  C         4.6988278865       -2.1297564670       36.9185332308
  H         4.0071890186       -0.2506078433       16.9097475052
  H         4.1059973246       -0.6575596690       18.5564671321
  C         2.0787533458       -0.8718944262       17.6948667774
  H        16.6474997853        3.5112924985       22.7203999419
  H        17.4490587173        3.2260918498       21.1419177577
  C        18.0791956535        1.9333681513       22.7426068213
  H        10.7998864810        9.6379339979       13.7047889624
  C        11.4867724219        8.2730265768       12.3158815872
  H         4.1175288065       -1.5834998035       37.6458693954
  H         4.2425607345       -3.0863760884       36.7530423976
  C         6.1135870574       -2.2985599826       37.5256290652
  H         1.2328740356       -0.2694511997       18.0215621960
  H         2.0694288628       -1.7614301337       18.3771475006
  C         1.8677193399       -1.2552141680       16.2052336532
  H        18.2689278153        0.9685661915       22.3120102895
  H        18.9985023698        2.4646856619       22.8038502931
  C        17.6161585826        1.7842593994       24.1633382927
  S        11.9591262693        6.7215907259       11.7289886486
  C        11.6752224357        9.4029343112       11.3618386358
  H         6.6543741179       -1.3195857513       37.6670107976
  H         6.0314754521       -2.7449645307       38.4663807296
  H         6.7803476156       -2.9143250273       36.9260090548
  H         2.5342591894       -2.0747449052       16.0694438280
  H         2.2210526359       -0.4221689200       15.6184415324
  H         0.8543091222       -1.4735426589       15.9715322740
  H        18.3617367616        2.1026121058       24.8442706239
  H        17.2998734495        0.7576114845       24.3401097608
  H        16.7771632545        2.4328423465       24.3855385354
  C        12.4120432041        7.5587111650       10.2456660165
  N        12.1339092124        8.8648518920       10.2270226868
  O        11.2885040322       10.5311708628       11.5286592334
  S        13.0122410735        6.8813342275        8.7987493321
  C        12.1784416926        9.6841070586        8.9861909763
  H        12.4892681508       10.6617145315        9.2202537352
  H        12.9997280560        9.4743423626        8.2338589407
  C        10.8157237413        9.7532069299        8.2680001264
  H        10.3312143056       10.6866865100        8.4705910828
  H        11.0898670515        9.5410846085        7.2088743672
  H        10.2832050370        8.9612351703        8.6533161812
  H         2.6403485784        3.3277003555       13.0370951654
  C         3.2924431518        2.5200250140       13.0555237815
  H         2.6827688753        1.6708125320       13.0074965916
  C         4.4651910065        2.4826061631       12.1193462762
  C         3.7135774328        2.5514291688       14.4776726270
  C         4.0812447821        2.4681711489       10.6334286501
  H         5.0492581520        1.6554336581       12.3199007034
  H         5.1541642566        3.2995894143       12.2383191468
  H         4.4683130271        3.2868450346       14.6077300963
  H         4.2861570033        1.6307179857       14.6072486269
  H         2.8697148517        2.5358953145       15.1678990701
  C         4.7168943125        1.3766221840        9.7167661472
  H         2.9607190715        2.3829029114       10.5014445886
  H         4.3629954186        3.3984891413       10.2471008210
  C         5.3887696783        1.9457826983        8.4275497023
  H         4.0228070596        0.5283719999        9.4530629991
  H         5.4579588908        0.8317370758       10.2846248694
  C         6.6078243980        2.9142158886        8.5817669777
  H         4.6373402398        2.4727755788        7.9188152052
  H         5.5362028481        1.1977988636        7.6721367259
  C         7.8563511594        2.2452293161        9.1939343818
  H         6.7412094041        3.3320538331        7.5572842625
  H         6.4777659068        3.7327858891        9.2980991152
  C         9.1128933383        3.1583699079        9.2257974250
  H         8.1240999130        1.4363469051        8.5543782520
  H         7.5134306417        1.8287127237       10.1719020443
  C         8.7083897233        4.4988664135        9.9275456251
  C         9.4840531937        3.8779305235        7.9394802143
  C        10.2221698841        2.4269123383       10.0871443648
  C         9.0097584622        5.5521669478        9.0892618357
  C         8.1894721292        4.9239658743       11.1585902038
  C         9.5120383101        5.2196033511        7.8318234902
  C        10.0157970006        3.2922652594        6.8192536318
  H         9.9498723702        2.1014879589       11.0873638758
  H        10.5034166461        1.5579454817        9.4458356703
  C        11.4924621702        3.2233413003       10.3594997015
  S         8.5990254103        7.0757018000        9.8425882628
  C         8.1628537974        6.3191662517       11.2625563645
  H         7.8570701542        4.1728344038       11.8604656222
  C         9.8612903396        5.8255862287        6.6499730485
  H        10.0136787041        2.1941760482        6.8830221171
  C        10.4198542698        3.8599298840        5.6590368552
  H        11.2013083112        4.1520335886       10.7667174104
  H        11.9864434622        3.4209166816        9.4138566265
  C        12.4442915621        2.2885876328       11.1873244261
  C         7.7710933463        7.0286219506       12.5005328180
  C        10.3926683179        5.1776574677        5.4787803744
  H         9.7816433765        6.9371440437        6.6270437331
  C        10.8038632777        3.4371250023        4.4347196433
  H        13.4201574601        2.7723075986       11.0245691108
  H        12.3279262565        1.2804987833       10.8312419546
  C        12.0919503006        2.5534471184       12.7142376894
  C         7.8352742900        8.4061476072       12.7715065665
  C         7.0618324751        6.2595552972       13.6094277945
  C        10.8432325376        5.8355978724        4.1723130787
  C        11.1469135946        4.4974166677        3.5950374217
  S        11.1645707838        1.8728604346        3.7752102150
  H        11.9031335400        3.5945522367       12.7714582837
  H        11.1411569058        2.0816320038       13.0050460695
  C        13.2545089832        2.2067671000       13.6998904045
  N         8.1800851961        9.3288528247       11.8620843801
  C         7.5876933853        8.9134140685       14.0237125911
  C         6.8343794682        6.7890291127       14.8549505594
  H         7.0458107895        5.1554446601       13.5391357326
  C        12.1140160496        6.6376216394        4.3338430077
  C         9.6664007007        6.6213848655        3.5914314825
  C        11.5975883334        4.0602538393        2.3698505617
  C        11.5158494611        2.6812813638        2.3204049609
  H        14.1213035211        2.8301743278       13.5661376720
  H        13.5835771811        1.1578481904       13.5588993613
  C        12.8728444553        2.4285054856       15.1820410120
  S         8.1603218920       10.7800207537       12.5838579380
  N         7.7363201703       10.2894147621       14.0760813770
  C         7.0158521531        8.2085512482       15.1389109754
  H         6.5140571896        6.1035936385       15.5903731539
  H        11.7829928011        7.5342089243        4.9231139453
  H        12.4813889052        7.0633757476        3.3801957863
  C        13.1972529134        5.9812120251        5.2162613767
  H         9.3692091713        7.4479616662        4.2534479346
  H        10.0527019038        7.1006131673        2.7049965965
  C         8.4796343141        5.7200059729        3.0372292507
  H        11.7895973256        4.8366095724        1.6110564377
  C        11.8091194528        1.8156201332        1.1368546649
  H        12.2995893564        3.3189084532       15.4608846752
  H        12.2530805152        1.5911885017       15.5373854792
  C        14.0989869424        2.4675733252       16.0841644030
  C         6.7155705393        8.8565477792       16.3501621113
  H        12.8484956818        5.8042978486        6.1793402817
  H        13.4571565839        4.9752661070        4.7616384307
  C        14.4118176429        6.9491538715        5.3524147391
  H         7.9089961772        5.2095228247        3.8335417327
  H         8.9753068378        5.0184553803        2.3827310164
  C         7.4115188219        6.6548760425        2.3842486661
  C        11.8415334475        0.3720350977        1.0274788641
  C        12.0432558563        2.5374305350       -0.1452232998
  H        14.6873415260        3.3771244182       15.7981048992
  H        14.7309237045        1.5506867280       16.0391859486
  C        13.7088706412        2.6070515798       17.5525185398
  H         6.8629136626        9.9354208359       16.3069019459
  C         6.5684769698        8.3226128227       17.6155318037
  H        14.3421319478        7.4460945831        6.3154361547
  H        14.2318410013        7.8475457667        4.6871344625
  C        15.7617261557        6.3080435921        5.1966165404
  H         6.8888602778        7.2020028004        3.1645990990
  H         7.8262325173        7.3727151699        1.6789805552
  C         6.1606700481        6.0103098279        1.6668611114
  N        11.5677754479       -0.5496614157        2.0275669385
  C        12.1683412465       -0.1801796950       -0.1794874745
  C        12.2531554322        1.9315196100       -1.3965803542
  H        12.0147276158        3.6421917608       -0.1633608464
  H        13.3620267910        1.6676082470       17.9776598422
  H        12.8556068920        3.3243669160       17.4823384987
  H        14.5500756883        2.9917274242       18.1265727987
  S         6.3280028278        6.6981349464       18.0181517772
  C         6.4856925154        9.2759904115       18.6622405786
  H        15.8621769458        5.6515241253        4.4212585991
  H        16.4706922490        7.1134255922        5.0705147828
  C        16.1016875385        5.4770976700        6.4223834537
  H         5.8420533960        5.1799349006        2.2017843370
  H         6.4348778444        5.7651985840        0.6061235943
  C         4.9635209388        6.9678969102        1.5556511719
  S        11.5675292922       -2.0022111631        1.3799756842
  N        11.9965110575       -1.5586864972       -0.1236820947
  C        12.4367927501        0.4813765356       -1.4009025099
  H        12.3584375067        2.5411047091       -2.2774884074
  C         6.1789011559        7.2707752283       19.6858847465
  N         6.2647289733        8.5708867634       19.8029401125
  O         6.7456833090       10.4606571302       18.6130528732
  H        16.0058583254        6.1737489910        7.2971418421
  H        15.3166093619        4.6457353279        6.4706679395
  C        17.5499933439        5.1062388588        6.6473850230
  H         4.0388908351        6.4445027368        1.2648144514
  H         4.5632785849        7.1731694217        2.5507251543
  C         5.3074778707        8.1072731027        0.6298827995
  C        12.7112166205       -0.3294690045       -2.5275358741
  S         5.8931250956        6.2300294313       21.0689266295
  C         6.4028689675        9.1966310205       21.1362023100
  H        17.5750678677        4.7106397449        7.6336481085
  H        17.8831836734        4.2802523341        5.9987352930
  C        18.5536640915        6.3149113221        6.6652099680
  H         5.5110946351        7.8124275910       -0.3845188223
  H         6.2029140127        8.6074370666        0.8326716751
  C         4.1693154503        9.2018569723        0.6538887346
  H        12.6199477526       -1.4005801116       -2.2922199585
  C        13.1642524756        0.0552314290       -3.8125296586
  H         5.8337152339        8.7251844357       21.8756603598
  H         6.0137876309       10.1927036525       21.1119848642
  C         7.9042236531        9.1230981012       21.4928149438
  H        18.4766324362        6.9734944778        7.5396676731
  H        18.2358129926        7.0018791137        5.8617595680
  C        20.0141797555        5.7713811241        6.3923520836
  H         4.4381604675       10.1051943596       -0.0009186214
  H         3.2659900846        8.7658918211        0.2503662929
  C         4.0357666666       10.0325101448        1.9896885193
  S        13.6410759139        1.6416106759       -4.1684017921
  C        13.0922764241       -0.8864626182       -4.9769615285
  H         8.1240478524        9.8894471993       22.2060965060
  H         8.6075661933        9.3240669276       20.6669488064
  H         8.1462931829        8.1550885470       22.0899165549
  H        20.6690087911        6.2434129415        7.1518505587
  H        20.1507971744        4.6450056636        6.3543926672
  H        20.3349793263        6.2030386497        5.4704182667
  H         5.0017770783       10.2717145661        2.3789594182
  H         3.4532985873       11.0155828522        1.8508087506
  H         3.6021884802        9.3542621969        2.7777224320
  C        13.9729043350        0.9695042144       -5.8118723704
  N        13.7053545568       -0.3229343451       -5.9899023783
  O        12.7110105482       -2.0688845409       -4.9671123289
  S        14.7221550061        1.8165478298       -7.2311696971
  C        13.9736905437       -1.0801785864       -7.2272415295
  H        14.0082642766       -2.1398893793       -7.0418460491
  H        14.8988397288       -0.9529309373       -7.8065974908
  C        12.7239472095       -0.9232247030       -8.1276716893
  H        12.9262316575       -1.1922386011       -9.1855828277
  H        12.3794871097        0.1072537995       -7.9476159458
  H        11.8016587292       -1.4430588362       -7.7735105009
