352
 i =    98300, time =    49150.000, E =        98.4898248867
  H        12.3012439357        5.2956382733       31.6685198008
  C        11.3064106731        5.2933215093       32.1507978756
  H        10.7157852001        4.3736014020       31.9325402517
  C        10.7434695879        6.5652816922       31.5866206012
  C        11.3959149002        5.3589596006       33.6909179389
  C        11.1881487607        6.8137131602       30.0685735769
  H         9.6761829001        6.5128448993       31.5759669757
  H        10.9598573238        7.4326013698       32.1437115196
  H        11.9280697238        4.4216913446       34.0196715736
  H        11.9839273352        6.1957697640       34.0234252832
  H        10.4030613437        5.4099499656       34.1472832778
  C        10.5651419803        5.9144840680       29.0183123854
  H        12.2865681163        6.7292260778       29.9429057771
  H        10.7517748308        7.7644412172       29.7541524866
  C        10.8669941723        6.0326206087       27.5511955955
  H        10.7656380067        4.8786361502       29.3078643401
  H         9.4883677707        5.9029769771       29.2195229746
  C         9.8574557743        5.2531164701       26.7012844737
  H        11.7993276444        5.5119503431       27.3823961622
  H        10.9166003883        7.0665156462       27.1851322927
  C         8.6030852675        6.0723989696       26.5064949439
  H        10.3684328917        5.1195526362       25.8275233630
  H         9.6788528888        4.2559432899       26.9858640098
  C         7.4773454401        5.3199133663       25.6784948053
  H         8.2707426766        6.5853970863       27.4696046817
  H         8.9243925023        6.8754235666       25.8101042441
  C         7.1113030881        3.9966811285       26.4166605046
  C         7.8651977047        4.6006178263       24.4242294127
  C         6.1903964426        6.1323265646       25.5570909551
  C         7.3713220391        2.8899972120       25.5876797181
  C         6.6572567226        3.5705550777       27.6554701190
  C         7.8247547961        3.2591557790       24.3195489467
  C         8.2654684851        5.2302317737       23.2212535052
  H         6.3149542173        7.0286346063       24.9615585892
  H         5.8685583695        6.4079253062       26.5697774506
  C         5.1223601753        5.3698812671       24.7743173172
  S         7.0814649688        1.3372826606       26.2489257719
  C         6.4695557200        2.1844215537       27.7189120559
  H         6.4898392908        4.3727095908       28.3619351204
  C         8.2021014273        2.6348901114       23.1714827515
  H         8.4161755213        6.2702437100       23.1843898839
  C         8.6536861015        4.5698838667       22.0746713582
  H         5.5335345736        5.2225732428       23.8209426794
  H         4.7859890531        4.3816421746       25.1448217358
  C         3.7918476781        6.1229530199       24.6103548033
  C         5.9303311695        1.4895515147       28.8802166805
  C         8.6035771605        3.2192179787       21.9665252623
  H         8.2251134790        1.5635045905       23.1792154795
  C         8.9652816764        4.8501053071       20.7790326862
  H         3.0694405530        5.6246068069       23.9315382580
  H         4.0833887772        7.0870807863       24.1366005966
  C         3.0854079362        6.5095915501       25.9125951978
  C         5.9953749214        0.0841676070       29.1230570971
  C         5.6877117126        2.2889454593       30.0958063513
  C         8.9888509373        2.4105232353       20.7238248765
  C         9.1404335839        3.7721325190       19.9711782725
  S         9.1121468287        6.4086159053       20.0140752881
  H         2.4033628140        7.2796517189       25.5624301753
  H         3.7377941099        6.9319504398       26.6193428265
  C         2.3355211924        5.4056217978       26.7062697171
  N         6.4193734267       -0.8745223992       28.1812687703
  C         5.6712846347       -0.4069851440       30.3741813110
  C         5.4061781333        1.7738387923       31.3228383158
  H         5.6144611686        3.3549592230       30.0594615092
  C         7.7990243237        1.5856775001       20.0967390357
  C        10.2679197940        1.5827039329       20.8883616871
  C         9.5789974613        4.1845241372       18.7052748635
  C         9.5487628309        5.5514230266       18.5521404956
  H         1.4377052259        5.0497603976       26.1488520745
  H         2.8436527881        4.4378175571       26.5450726248
  C         2.1638807006        5.7702961353       28.2120717830
  S         6.4309213643       -2.3253666880       28.9929520337
  N         5.8509613904       -1.7731386137       30.3995583897
  C         5.4396181094        0.3418028831       31.5792507453
  H         5.2550282864        2.4674208668       32.1767351248
  H         7.4412926297        0.8406847800       20.7844694280
  H         8.1548959218        1.0274479706       19.2943114353
  C         6.6523458583        2.4325289929       19.5358064697
  H        10.4247262913        1.1311272899       19.9169850032
  H        10.1750384497        0.7890822852       21.6011368379
  C        11.4704135362        2.4319041593       21.2530603962
  H         9.8492573467        3.4749183154       17.9992187853
  C         9.7420079591        6.3069810615       17.2412039887
  H         1.1796344349        5.4839567147       28.4737513850
  H         2.3340800844        6.8113324997       28.3802547645
  C         3.2601773218        5.0193588257       29.0721744867
  C         5.1563752946       -0.2911992905       32.8048554938
  H         7.0446288525        2.9284726242       18.5837277284
  H         6.3618489084        3.2857768404       20.1918584720
  C         5.2722147503        1.6841862289       19.2632278389
  H        11.4157933611        2.7426693346       22.2424437680
  H        11.4581184708        3.3197099448       20.7498171655
  C        12.8518600103        1.6865911892       21.1194349754
  C         9.8780177520        7.7380594835       17.1098065916
  C        10.1253041272        5.5306856129       16.0087470909
  H         3.0741392106        3.9597277907       28.9566157245
  H         4.2641325722        5.3263791355       28.8001261230
  C         3.1202638017        5.3478821072       30.5883389135
  H         5.0476346638       -1.3525153319       32.7886743817
  C         4.7169418520        0.1021623850       34.0102741819
  H         4.9307458115        1.3593039498       20.2573111962
  H         5.5047883440        0.8748655907       18.5680458121
  C         4.2661780127        2.6504623821       18.6526936244
  H        13.0079423470        0.8693253812       21.8418112600
  H        12.9804656678        1.3337765227       20.0925477667
  C        13.9956745460        2.6306869376       21.4637724692
  N         9.7029228232        8.6281321392       18.1453559323
  C        10.1198913202        8.3417395885       15.8864895735
  C        10.4709557144        6.1769658587       14.8509729406
  H        10.0592716116        4.4805996126       15.9213790636
  H         2.9020246142        6.3985204830       30.7727898690
  H         2.2079722064        4.8576853859       31.0504459597
  H         4.0156733983        5.1143984953       31.1635167163
  S         4.1814880072        1.6457033407       34.4075877570
  C         4.6811659256       -0.8734958384       35.1373462287
  H         3.6470571248        3.1922539331       19.3964805369
  H         4.8363888730        3.3614668381       18.1072042559
  C         3.3197913299        2.0133263658       17.7349120930
  H        13.5906251734        3.4504214646       22.1244631413
  H        14.2560482679        3.2320129332       20.5830660586
  C        15.2460147731        1.9333788231       22.0358553055
  S         9.7705558949       10.1799918661       17.5349162416
  N        10.0359748660        9.7424603284       15.9933850419
  C        10.4656868238        7.6245623029       14.7208427301
  H        10.7914166366        5.5467142722       13.9700272700
  C         4.0794685110        1.0266338022       36.1003935299
  N         4.3590297058       -0.2970213130       36.2988093786
  O         4.8047249082       -2.0469420077       34.9345761708
  H         3.8274813844        1.6382608558       16.8989038900
  H         2.6698069689        2.8301313699       17.3817941421
  C         2.3170411452        1.0028978228       18.3782984588
  H        14.9912391727        1.4714047706       23.0436139115
  H        15.5785011319        1.1361707363       21.3603030544
  C        16.4853603779        2.8746390584       22.1645536889
  C        10.7769204590        8.1889048088       13.4853028343
  S         3.8524290340        2.0827783156       37.5002751013
  C         4.3824440374       -0.8623342733       37.5971604526
  H         2.9898182277        0.2550488517       18.8231480274
  H         1.7425948605        1.3871878335       19.1750144601
  C         1.4126459857        0.1995265214       17.4449303198
  H        16.2047052882        3.8776224456       22.5531952638
  H        16.8741488213        3.2077258708       21.1741211986
  C        17.6102121710        2.1835783713       22.9698016190
  H        10.5909808895        9.2268267076       13.5250234758
  C        11.3784730535        7.8354679884       12.3038311927
  H         3.5282179329       -0.5120664765       38.1766733445
  H         4.1705674560       -1.9381821250       37.5523005986
  C         5.7047773232       -0.7709045453       38.3322835392
  H         0.9961307610        0.7106694530       16.6652339592
  H         0.5817150950       -0.1295925201       18.0978383586
  C         2.0286019790       -0.9948232806       16.7989857181
  H        17.8063099767        1.2357356504       22.4129264194
  H        18.5449743609        2.7144250488       22.8604791301
  C        17.2967272609        1.9609810998       24.4423546332
  S        12.0524206568        6.2982928383       11.9147720041
  C        11.6580535025        8.8595548344       11.2539318687
  H         6.6095605432       -1.1109084313       37.8383902550
  H         5.9428099588        0.2322204451       38.5702176601
  H         5.6926012636       -1.2907073719       39.2951633724
  H         3.1367569667       -0.8767060937       16.6424254106
  H         1.4398053174       -1.0149087676       15.8244495208
  H         1.7683187063       -1.8589118193       17.4666201699
  H        18.2132059838        1.9353109633       25.1338580869
  H        16.7222436884        1.0641627451       24.4427673031
  H        16.7174625687        2.7483538799       24.8520115327
  C        12.6676812877        7.0027979899       10.4710956624
  N        12.3675440258        8.2605701027       10.2694253498
  O        11.3812778374       10.0255194912       11.3061997962
  S        13.4149141065        6.0370557775        9.1741474827
  C        12.6497017047        9.0422586786        9.0200963853
  H        12.5990873063       10.0933186523        9.1908420698
  H        13.6922899807        8.9045640695        8.6870558748
  C        11.5901797662        8.7348458014        8.0133848696
  H        10.8589960353        8.0462351271        8.4632555324
  H        10.9519373018        9.5431735661        7.6461279292
  H        12.0046680857        8.1346391369        7.2175118432
  H         2.3671472108        3.4462172231       12.4765453509
  C         2.8991569068        2.5333078284       12.7219886669
  H         2.5653437998        1.7489864135       12.0727478437
  C         4.3395625547        2.6106364581       12.3427130044
  C         2.6027777240        2.0515925062       14.1893522940
  C         4.4436609815        2.8434640221       10.8268680842
  H         4.9327671953        1.7818572328       12.7620947672
  H         4.7225859691        3.5111897358       12.8742763474
  H         2.8539014534        2.7579337411       14.9984223671
  H         3.1896294597        1.1158381762       14.4510243800
  H         1.5349875221        1.7880495026       14.2847330145
  C         4.7615396872        1.6018892823       10.0244220708
  H         3.5645498572        3.3371944904       10.3952482351
  H         5.2500435691        3.5768204397       10.7542293091
  C         5.1926269963        1.8710844266        8.5836699196
  H         3.8749981620        0.9672863885        9.8285755626
  H         5.4411673860        0.8455701341       10.5011781312
  C         6.4995750433        2.6051722240        8.3979021901
  H         4.4070275843        2.4089863378        8.0909224461
  H         5.2805475397        0.8244226489        8.2959109866
  C         7.6744383546        1.9533145187        9.0937752922
  H         6.7261349182        2.4431050299        7.3878388023
  H         6.4357026200        3.6785066792        8.5697380924
  C         8.9683659207        2.8047978529        9.2307873094
  H         7.8638584615        0.9471521286        8.7358770300
  H         7.3721048932        1.7909502452       10.0810424128
  C         8.6255730329        4.1613426601        9.8771902840
  C         9.4676084413        3.4122506051        7.9511309710
  C        10.1288514082        2.0099857029        9.9548361239
  C         8.8674675095        5.2151236738        9.0563659557
  C         8.0398253714        4.5156737368       11.1144852672
  C         9.3661323600        4.7686006274        7.8037959949
  C        10.0825955481        2.7828571333        6.8658515426
  H         9.7256613466        1.8812380468       10.9741508652
  H        10.2114670660        1.0214195536        9.5511479202
  C        11.4499542755        2.7697644734        9.9883645514
  S         8.3704233026        6.7090839548        9.6986737570
  C         7.8239245828        5.8577349325       11.1348136639
  H         7.7203971077        3.7604403884       11.8489769336
  C         9.8404740208        5.3454360235        6.6884993037
  H        10.0012146003        1.7808779525        6.8109931539
  C        10.5921638013        3.3680864803        5.7610697443
  H        11.2649396086        3.9158943968       10.1130622082
  H        11.9797306282        2.4358091380        9.0600682270
  C        12.4851098885        2.4862616289       11.0877390037
  C         7.4005928162        6.5928743258       12.3646954404
  C        10.4859674736        4.6977022474        5.6328176211
  H         9.7350543018        6.3891603458        6.5426567274
  C        10.9627764914        2.9627281545        4.5572156525
  H        13.2767012264        3.1974105825       11.0333290334
  H        12.8223647713        1.5562880737       10.8846898338
  C        11.8877068913        2.4966042097       12.5369500413
  C         7.5729299230        7.9556404753       12.6276958830
  C         6.8757946778        5.7276353419       13.4575302765
  C        10.9646494756        5.3755057836        4.4111721052
  C        11.2442078490        4.0204088873        3.7488646327
  S        11.2457935810        1.4164359109        3.8184526764
  H        11.4054086695        3.4484131910       12.7546659410
  H        11.1028755163        1.7597988377       12.6859140655
  C        13.0201528409        2.2442517485       13.5176815374
  N         7.9736267094        8.9574507473       11.7545078316
  C         7.3644841511        8.4715720605       13.9435961712
  C         6.5913092977        6.2225189695       14.7346021119
  H         6.5229497170        4.6974880856       13.1934066505
  C        12.2920973371        6.1119178856        4.4969541810
  C         9.8959610461        6.1732664514        3.5478848794
  C        11.5913540288        3.6104301140        2.4457044025
  C        11.6733337355        2.2259542747        2.2732445173
  H        13.8884425740        2.8329130272       13.1379976749
  H        13.3045582303        1.2347454653       13.3745552505
  C        12.7558924432        2.6067730484       14.9435848820
  S         8.0529855706       10.4114584116       12.5846435550
  N         7.5696262548        9.8999058330       14.0871695175
  C         6.8076998626        7.7154317105       15.0176052594
  H         6.1250484439        5.5050142398       15.4819699991
  H        12.0414023160        7.1205327024        4.8923578053
  H        12.6472200804        6.2456209610        3.4741642403
  C        13.3990188427        5.3670251796        5.3860617918
  H         9.6388900361        7.0879257212        4.0286526036
  H        10.5035936964        6.5285299678        2.7413458851
  C         8.6164949983        5.3633911142        3.2032604265
  H        11.6663153492        4.3544036380        1.6449898098
  C        12.0397591211        1.4934192197        0.9826932010
  H        12.5174686306        3.6785651945       15.1003326540
  H        11.7630380152        2.2037366626       15.0807581102
  C        13.8116073924        1.9729111176       15.8800946977
  C         6.4715816915        8.3363280665       16.3129745816
  H        13.0322194533        4.9664749539        6.3240523047
  H        13.8311298702        4.4930266005        4.8640148544
  C        14.5488495802        6.2291981367        5.7566845249
  H         8.2406352636        5.0223834756        4.1880156977
  H         8.8820294498        4.5600443428        2.5369193212
  C         7.3589060874        6.1981832835        2.6324999886
  C        12.1217084871        0.1078710788        0.7936922427
  C        12.2360658371        2.3306882979       -0.2464858865
  H        14.7109240058        1.9345554420       15.3330386233
  H        13.5438834903        0.9393917726       16.0056977218
  C        14.0092288368        2.6395762332       17.2433337443
  H         6.2455645347        9.3594036780       16.2241801944
  C         6.2493663967        7.8640864426       17.5911699307
  H        14.2331069642        6.7276632703        6.6742601892
  H        14.6277382941        6.9103195403        4.9536026905
  C        15.7141178064        5.2596744745        5.9617183619
  H         6.9540243554        6.8309399364        3.3938692292
  H         7.7134766734        6.9059018249        1.9175815201
  C         6.2860352377        5.4247951726        1.9007707849
  N        11.8744818886       -0.9095537694        1.7728236478
  C        12.2884360285       -0.4709626870       -0.4308416193
  C        12.5764241539        1.7355305197       -1.4341811316
  H        12.2385375033        3.4189781411       -0.2043170012
  H        13.4750215191        3.6202246080       17.2597636924
  H        15.0552334499        2.8446869700       17.4773291674
  H        13.6092010179        1.9944682207       18.0755996328
  S         6.1489374545        6.2117452889       17.9765924182
  C         6.2711760988        8.8336769763       18.7487574684
  H        15.3863134338        4.3727219736        6.4849994926
  H        16.1907329068        4.8409136315        5.0449740837
  C        16.9009756915        6.0149544014        6.6664860844
  H         6.2064736717        4.4548041741        2.2534769103
  H         6.5367856799        5.3005052352        0.9131393486
  C         4.9248635938        6.0798855480        1.9863051628
  S        11.9291003154       -2.4015265770        1.1070651688
  N        12.2804480789       -1.8623409240       -0.3851815760
  C        12.5909261757        0.2538256794       -1.5888889160
  H        12.7948172464        2.4257529440       -2.2426099721
  C         5.9307798823        6.8250927175       19.6207250870
  N         6.0262625981        8.1731892582       19.8564107102
  O         6.4862049744       10.0335990858       18.6100227525
  H        17.2607218860        6.9338856526        6.1456939869
  H        16.6046676420        6.2869699683        7.6692849539
  C        18.1617047173        5.1864848714        6.7988890539
  H         4.2595557958        5.3377596815        1.6821521346
  H         4.5969802696        6.2294452221        3.0598705415
  C         4.7524676967        7.2855237032        1.0610888828
  C        12.8419303227       -0.4860076695       -2.8558069888
  S         5.5759032789        5.7610556435       21.0241814375
  C         6.0265049006        8.7068032649       21.2054446616
  H        17.8330475839        4.2856556071        7.3314243207
  H        18.5571360679        4.7194688073        5.8848190055
  C        19.1673496925        5.9567194361        7.6775009487
  H         4.3456824039        6.9712494585        0.1074166897
  H         5.6894055023        7.7226717408        0.9150933355
  C         3.9973993518        8.4622666560        1.6422510419
  H        12.3967662385       -1.5048684673       -2.8385735807
  C        13.2574358593       -0.2008318608       -4.0651638168
  H         5.4830003601        8.1200772252       21.9188019997
  H         5.4112019967        9.6045964041       21.1902711315
  C         7.4659051655        8.9448341664       21.7015042947
  H        19.5337484870        5.4185771400        8.5555478315
  H        18.8123446629        6.9629606091        7.9749088673
  C        20.3895643181        6.1962360294        6.7923840571
  H         3.6179107398        9.1160810653        0.8294974686
  H         3.0415684680        8.1138969740        2.1181881277
  C         4.7304788286        9.3573455490        2.6218013978
  S        13.9505463773        1.3268676396       -4.4846204766
  C        13.3694944994       -1.2576329271       -5.1044328578
  H         7.4672879019        9.6492281598       22.5158499059
  H         8.0782094698        9.3711609251       20.8875562845
  H         8.0452573435        8.1010193549       21.9706015242
  H        19.9859448541        6.7815721847        5.9275266905
  H        21.1105712532        6.7828614832        7.3047099617
  H        20.8107459482        5.3031645219        6.3918759990
  H         4.4818662402       10.4224135445        2.3363235663
  H         4.3823742444        9.2287319794        3.6329816566
  H         5.8061333483        9.4314548618        2.5987955603
  C        14.2227297098        0.6373179605       -6.0595346619
  N        14.0240394642       -0.6855350416       -6.1757533093
  O        13.0244140519       -2.4521075688       -5.0365222693
  S        14.9792186449        1.5044013362       -7.3276501784
  C        14.1707390701       -1.4740904391       -7.3872478304
  H        14.2283869125       -2.5175178977       -7.1881321567
  H        15.1276264388       -1.2060080741       -7.8585846034
  C        13.1524795884       -1.2718567251       -8.4153774967
  H        12.2073707892       -1.4498624435       -7.9580653270
  H        13.2956993298       -2.0633292882       -9.1759889105
  H        13.1733176962       -0.3231769140       -8.8905246200
