352
 i =   101100, time =    50550.000, E =        99.4742015649
  H        11.0570269175        6.7538075027       32.7046112040
  C        11.7723536240        5.9309178012       32.5973277282
  H        12.7184247541        6.4368914947       32.7215591628
  C        11.6887491852        5.1830699781       31.2042829753
  C        11.4915305937        5.0112600049       33.7492304317
  C        11.3874904892        6.0791330031       29.9936072766
  H        12.6755784197        4.7773465096       31.0313724047
  H        10.8883608617        4.3819589134       31.2526324742
  H        10.6097680360        4.4026961646       33.5113862808
  H        12.3735188020        4.5330318885       34.0969340959
  H        11.2353124479        5.6169979406       34.6369676128
  C        10.5300892271        5.3662718673       28.9993050227
  H        12.3171697715        6.4358821300       29.4979840591
  H        10.7678671581        7.0256929995       30.3161128847
  C        10.7428570982        5.7206529329       27.5426280247
  H        10.8698698175        4.3056991465       29.0167191280
  H         9.4406428253        5.6180697132       29.2179129853
  C         9.8451343291        4.9573018225       26.5857096411
  H        11.8112333727        5.4436672287       27.2796470356
  H        10.5922512220        6.7775532635       27.3700026889
  C         8.4893315055        5.7069965449       26.3230599854
  H        10.3334248330        4.7730602979       25.6479804649
  H         9.6898631976        3.9294344029       26.8364631657
  C         7.3931643922        5.0024420693       25.5449535727
  H         8.0382381780        6.0084613291       27.2795826100
  H         8.6448147627        6.7187727673       25.9542825502
  C         7.0126189793        3.7022184492       26.2041457047
  C         7.7684020319        4.3058327375       24.2897573855
  C         6.0767746164        5.8176837826       25.3976413624
  C         7.2832276472        2.6013760284       25.4370897664
  C         6.4841900431        3.2977851322       27.4549838699
  C         7.7683554654        2.9660674338       24.1774956798
  C         8.2960963688        4.9579670994       23.1865848657
  H         6.2906547056        6.7950810157       25.0356061392
  H         5.7522103327        6.0472617943       26.4092637557
  C         4.9143577845        5.1748562108       24.6291882393
  S         6.8484636841        1.0906642643       26.1607711068
  C         6.4173941352        1.9405666417       27.5907125957
  H         6.4492633304        4.0219170482       28.2499759899
  C         8.0691314785        2.2999236211       23.0319435774
  H         8.2876322930        6.0054724058       23.0278808927
  C         8.6115072918        4.2841662573       22.0715928795
  H         5.2165269072        4.8599953776       23.6484328110
  H         4.6305686519        4.1733342857       25.1487736062
  C         3.5936335788        5.9951410371       24.5418134735
  C         5.9707468868        1.3167950811       28.8906798518
  C         8.6208521901        2.9046284819       21.9427180892
  H         7.9440474627        1.2114813788       22.9084125703
  C         9.0664186146        4.7138842046       20.8310494717
  H         2.9663674363        5.4961859523       23.8519141315
  H         3.7565523388        6.9769220931       24.1098578831
  C         2.9009555009        6.3362986978       25.9123885594
  C         6.0384363384       -0.0305407108       29.2244042620
  C         5.6999430140        2.2201454929       30.0195800824
  C         9.1767391102        2.1927084443       20.6906582254
  C         9.3911256375        3.5986054821       20.0178600102
  S         9.3691711379        6.1927933610       20.1728249544
  H         2.1428553943        7.0967182498       25.7670905958
  H         3.7121842903        6.7470785392       26.4784517850
  C         2.1775361187        5.2000902016       26.6636814524
  N         6.3967657133       -1.0274899190       28.3298376876
  C         5.8241978130       -0.5295379247       30.4794688097
  C         5.4020150890        1.7722856561       31.3445457291
  H         5.3876897056        3.2346151907       29.8540131148
  C         8.1681678370        1.3494086687       19.9724012615
  C        10.4849689895        1.3720897025       20.9523580034
  C         9.8410805981        4.0858959805       18.7873068310
  C         9.7872768089        5.4396290369       18.6862596909
  H         1.2523220004        4.7826116172       26.1662763263
  H         2.8108356039        4.3287066629       26.5762323977
  C         2.0936941944        5.6501023721       28.1124770384
  S         6.2111176176       -2.4560605773       29.0396616787
  N         5.8735139963       -1.9432219548       30.5773596153
  C         5.4480739527        0.2909880995       31.5816766919
  H         5.0973002974        2.5222631749       32.0512514527
  H         7.7912347207        0.6297502862       20.7291730539
  H         8.8033618201        0.7913694934       19.2827076316
  C         7.1297984570        2.0790390281       19.1912248869
  H        10.8399300395        1.1292703400       19.9466455838
  H        10.3518025989        0.4731083515       21.3915489710
  C        11.6107581674        2.2870947037       21.5857508631
  H        10.2726594371        3.4256510646       18.0894543523
  C        10.0458021826        6.2489072026       17.3879148496
  H         1.2583523583        5.1514589945       28.6012983288
  H         1.9700265073        6.7447919751       28.1759219532
  C         3.2841033287        5.1704243292       28.9378106192
  C         5.2562564887       -0.3438810702       32.8389670110
  H         7.5464558545        2.6381674075       18.4048246664
  H         6.6655485511        2.6652168493       19.9503683016
  C         6.0952370530        1.0975834452       18.6421179407
  H        11.4281040637        2.5905091564       22.6119463954
  H        11.8431712629        3.1183486367       20.8996535353
  C        12.8878095474        1.4445725640       21.7899891252
  C        10.2040132855        7.6437985468       17.3229603218
  C        10.3379103393        5.4511754557       16.1426156535
  H         3.3207413683        4.0571690425       28.8693254394
  H         4.2908133872        5.4693597833       28.5266132791
  C         3.1633257238        5.6341901972       30.3647761639
  H         5.4905148227       -1.3804567412       32.9738479537
  C         5.0623254496        0.1932900273       34.1177437288
  H         5.6536970059        0.7020601746       19.5208169730
  H         6.4799986695        0.2965547846       17.9870634923
  C         5.1363823999        1.8810208606       17.8115625614
  H        12.7407027343        0.8439548170       22.6900810596
  H        12.8494784753        0.6692883776       21.0081422029
  C        14.2547496164        2.1799437890       21.6230472189
  N         9.9934692939        8.5317447291       18.3686337186
  C        10.5466879765        8.2969905890       16.1250193919
  C        10.7980696176        6.1010724705       14.9866140498
  H        10.2691454951        4.4323465540       16.1841628733
  H         2.2375439081        6.2878751630       30.4332204696
  H         2.9107728113        4.7309347513       30.9665674606
  H         4.0645940271        6.1524505450       30.7632483690
  S         4.7141813483        1.8541918271       34.5972835147
  C         4.9846884797       -0.7761898028       35.1894143726
  H         4.6624197091        2.5246728211       18.5954058749
  H         5.7833521925        2.5740860937       17.2509798896
  C         4.2072727513        0.8630660224       17.1977649888
  H        14.1466202337        3.2545387667       22.0490934300
  H        14.5287380299        2.3505314700       20.5945670859
  C        15.4671700205        1.3669488143       22.1521883721
  S        10.3702364885        9.9996278993       17.7706044861
  N        10.5956743675        9.6693328361       16.2337694864
  C        10.8726920682        7.5707051497       14.9565094173
  H        11.0178252350        5.5096684525       14.1084503493
  C         4.4310240334        1.1445934167       36.1774379014
  N         4.3925596761       -0.1617715674       36.2664120257
  O         5.2177367469       -1.9844123688       35.1368369823
  H         4.7524035650        0.0100184980       16.7434994840
  H         3.5649279288        1.3926297640       16.5002278859
  C         3.1515348366        0.2373956620       18.1721196278
  H        15.2204390008        1.0184152758       23.1539700566
  H        15.6661129919        0.5019324955       21.5176998146
  C        16.7357279532        2.3027573909       22.2241709379
  C        11.2684493720        8.3064738595       13.7751591725
  S         3.9296331561        2.0866705003       37.5306672732
  C         4.1662330639       -0.9411304002       37.4875744074
  H         3.7054841426       -0.3621280878       18.9532472984
  H         2.5675780689        0.9997326376       18.6455259571
  C         2.3949075395       -0.8509648125       17.3932180011
  H        16.4206387235        3.2259767780       22.6981729679
  H        16.8985355356        2.6564801474       21.2091697796
  C        17.9572447459        1.6025473275       22.7672208150
  H        10.8395398608        9.2899431491       13.7393201556
  C        11.7936860342        7.9256291862       12.5146687773
  H         3.3818705508       -0.4566404908       38.0880114683
  H         3.7572724198       -1.9604154527       37.3415719983
  C         5.4516251992       -0.9346904388       38.4699761316
  H         2.3899654528       -0.5144770797       16.3702142760
  H         1.3835250081       -0.8553582946       17.8352831720
  C         3.0751199658       -2.2671605977       17.4710661027
  H        17.7742396545        0.6234854902       22.3836813934
  H        18.8356525905        2.0198728576       22.3844725055
  C        17.9161352596        1.5940746108       24.3457572778
  S        12.3050038539        6.3565141374       11.9494236171
  C        11.7670648581        9.0450771468       11.5028207672
  H         5.2783786262       -1.7967036750       39.1420877955
  H         6.4061596475       -1.0221664679       37.9836727805
  H         5.3390261051       -0.0433958765       39.1142951826
  H         3.4153403533       -2.3837860751       18.5129039266
  H         3.9324537492       -2.4096073520       16.7994664306
  H         2.3599100296       -3.0589063156       17.2195919823
  H        17.8486718909        2.6113489220       24.8236495478
  H        18.7179614656        1.0081614305       24.7581636787
  H        17.1867935819        0.9086330632       24.6646870005
  C        12.8531031556        7.3092076803       10.5482492154
  N        12.4990262190        8.6155996794       10.4536873925
  O        11.3528888689       10.1459378504       11.7014976026
  S        13.5210342105        6.5205631989        9.0433487985
  C        12.4626030949        9.4567693895        9.2471191022
  H        12.2122085786       10.5259196110        9.4343434005
  H        13.4565230198        9.5107252761        8.7945114371
  C        11.3831774400        8.9558939627        8.2604980746
  H        11.5530425663        7.9370420520        7.8681280196
  H        10.4044814753        9.0204035421        8.7075902828
  H        11.4665358331        9.5694760133        7.3789811273
  H         2.8273851753        3.7871076885       12.1923279747
  C         3.2147881248        2.8711260655       12.4462342122
  H         2.7038841115        2.2518710739       11.7311137055
  C         4.7112178983        2.7135469415       12.1799368951
  C         2.9021287274        2.6434222587       13.9592888492
  C         5.0659032404        3.0004524350       10.6982631614
  H         5.0791251469        1.7315506770       12.5599930673
  H         5.0898388490        3.5228018370       12.7895713741
  H         2.8989204047        1.5387545684       14.0762493804
  H         1.8802196746        2.9276606307       14.1536031315
  H         3.6011544998        3.1423842748       14.6301807676
  C         5.0946803021        1.7078981905        9.8586689722
  H         4.2518757288        3.4862718815       10.2325762234
  H         5.9257162256        3.6103109615       10.6289733897
  C         5.6072924439        1.9150015702        8.4182679420
  H         4.0698656280        1.3373766629        9.6726769385
  H         5.6659734181        1.0516061673       10.4475205973
  C         6.9774763470        2.6923358293        8.3730250064
  H         4.9652608099        2.4312028748        7.7515015331
  H         5.7186394149        0.9704448068        7.8714238485
  C         8.1232970689        1.9016549575        9.0829737100
  H         7.2718885420        2.8629970025        7.3304785220
  H         6.8968790337        3.6879222203        8.7599293950
  C         9.4280840651        2.7293166752        9.2102747463
  H         8.3631816166        0.9923442693        8.5321522225
  H         7.7523292548        1.7261305846       10.1046180197
  C         9.1980260417        4.0428839363        9.9416881764
  C         9.7931764105        3.3878241687        7.9225785300
  C        10.4701122406        1.9555484973        9.9915733597
  C         9.4102016975        5.1294921939        9.1295786083
  C         8.6925772157        4.4748981579       11.2043297359
  C         9.8610153585        4.7282059689        7.8826120651
  C        10.3027907732        2.7165926247        6.8003674450
  H         9.9512910875        1.6150175862       10.9173074168
  H        10.8703366211        1.0941310759        9.4198251241
  C        11.6950843478        2.7178207220       10.4838304065
  S         9.1051559922        6.6174943537        9.9310740460
  C         8.5063730586        5.8309826625       11.3653192073
  H         8.5601311685        3.7062105772       11.9654464168
  C        10.2035686658        5.3188294028        6.6619197566
  H        10.2840719986        1.6273638628        6.8175256758
  C        10.7083018019        3.3015880431        5.6779050064
  H        11.4912414771        3.6522024962       11.0197001778
  H        12.2180691830        3.0894270695        9.4857980594
  C        12.5855336978        1.7827291010       11.3631242344
  C         7.8857829590        6.4420795762       12.5026557332
  C        10.6109131205        4.6333049764        5.4986892215
  H        10.1260158455        6.3643452476        6.6040373389
  C        11.1237563596        2.8387938286        4.4417065291
  H        13.4604204523        2.3284882989       11.5184471135
  H        12.9217374324        0.8922928766       10.8258194748
  C        12.0676542515        1.3166259737       12.7328222029
  C         7.8954964027        7.8105795056       12.7287952445
  C         7.5049813800        5.5996011074       13.6453710057
  C        11.0411704781        5.2545044119        4.2299520297
  C        11.3691517623        3.8962601961        3.5921483154
  S        11.3436639339        1.2514959031        3.7922175403
  H        11.1047406999        0.7087683630       12.6906592899
  H        12.7688585952        0.6148100928       13.0898254814
  C        11.9185573078        2.4959033114       13.7228917914
  N         8.2082974532        8.8161409670       11.8178340144
  C         7.5723988383        8.3918914313       13.9507016598
  C         7.2469849938        6.1581923956       14.8695604165
  H         7.3580752148        4.4935333906       13.5143456097
  C        12.2969136277        6.0423397194        4.5089156410
  C         9.9055833024        6.1246506192        3.5020199629
  C        11.7590691290        3.4094918291        2.3084520655
  C        11.6912907043        2.0194283844        2.2293906060
  H        11.0505256097        3.2115729043       13.5613189691
  H        12.7832896018        3.1151569607       13.6691423323
  C        11.8224042681        1.8982321499       15.1323608219
  S         7.7550518696       10.2535518318       12.4433136029
  N         7.4978019697        9.7697252547       13.9427493023
  C         7.2076995119        7.6531945760       15.0920169708
  H         7.0117377186        5.5350606422       15.7326517272
  H        12.0383361401        6.9029834993        5.0900762964
  H        12.6150149781        6.4401973986        3.4693755383
  C        13.4218113599        5.2713605147        5.2669048141
  H         9.4497889132        6.8823846257        4.1939287239
  H        10.3312802982        6.8202943583        2.8188013938
  C         8.8313771252        5.3073387377        2.7263952689
  H        11.8964273243        4.1319753507        1.5374606813
  C        11.9619744671        1.3138071618        0.9294963694
  H        10.8254330773        2.1855538076       15.5619882808
  H        11.7356627059        0.8343267148       15.1295460953
  C        12.8031714340        2.4575618589       16.0492229790
  C         7.0719647827        8.3727836432       16.3564342737
  H        13.1148395458        5.1165826083        6.3402546711
  H        13.6683340445        4.3001522924        4.7128813552
  C        14.7138595508        6.0752557588        5.4495042412
  H         8.4666556000        4.3911736095        3.2581876369
  H         9.4470299123        4.9749544175        1.8855906741
  C         7.6311957023        6.2373349573        2.2792955092
  C        11.9948742784       -0.0944932391        0.8175788039
  C        12.1871340673        2.1093134324       -0.3287400742
  H        12.5390594156        3.4780172743       16.4226380721
  H        13.7570562685        2.4042044358       15.6173984258
  C        12.9401399207        1.8013309377       17.3843402580
  H         7.4417908230        9.3897287449       16.4316535098
  C         6.7669844464        7.9733843163       17.6277406009
  H        14.5140503118        7.0687861123        5.8822328798
  H        14.9518674403        6.2942823604        4.4037788719
  C        15.8874616416        5.2545830369        6.0108068245
  H         7.1472324408        6.8177135020        3.0198354535
  H         8.0172786429        6.9176658096        1.5193610832
  C         6.5346304023        5.4442527842        1.4715129921
  N        11.9540703940       -0.9763419009        1.8779234411
  C        12.3282391888       -0.7638506706       -0.3058442849
  C        12.4662276232        1.4097327843       -1.5046437269
  H        12.0854370720        3.1449555859       -0.3911400045
  H        12.9423295364        2.4582228543       18.2655264878
  H        13.8637721301        1.2645012629       17.3197328287
  H        12.2241257001        1.0364058395       17.5855492958
  S         6.4138053288        6.3685719610       18.0996485437
  C         6.6806928935        9.0335738087       18.7468358295
  H        15.4210629886        4.7390602505        6.7926052028
  H        16.2092188098        4.6089296701        5.2294698906
  C        17.0830822226        6.0615933427        6.6555661105
  H         6.4707708188        4.4751162518        1.7920703545
  H         6.8729180567        5.3359381833        0.4033779564
  C         5.1802730542        6.1246533779        1.4879909192
  S        12.0963514513       -2.5259786888        1.3586285147
  N        12.3714126007       -2.0906011806       -0.1457316703
  C        12.6245820464       -0.1112266532       -1.5542999126
  H        12.6168829483        2.0233545204       -2.3753055256
  C         6.0975773072        7.0930948560       19.7309104935
  N         6.1738326284        8.4469458980       19.8281524127
  O         6.6887387612       10.2623587431       18.5583788367
  H        17.5636371515        6.6366591294        5.8416449529
  H        16.7125843299        6.7394870151        7.4612959112
  C        18.0890876991        5.0378603446        7.2104786779
  H         4.3909189218        5.5519564081        1.0360182668
  H         5.0040711193        6.2267163177        2.5989904361
  C         5.2922062794        7.5238320137        0.8054048653
  C        12.9410911192       -0.9373718947       -2.6244619178
  S         5.6094298950        6.2421564889       21.2061454000
  C         6.0307472730        9.1377796804       21.0796901056
  H        17.9628643799        4.8525108612        8.2681305209
  H        17.9056763891        4.1075863846        6.7664738445
  C        19.5648793877        5.6342312854        6.9797027451
  H         5.1986287531        7.3363336042       -0.3111871065
  H         6.2897425426        7.9337224201        0.9367923028
  C         4.1628471490        8.4393534076        1.2765625794
  H        12.5749657760       -1.9180865951       -2.6427419387
  C        13.3892065610       -0.5337321059       -3.9027420931
  H         5.1479147133        8.7952401192       21.7097734201
  H         5.8856722784       10.1756376332       20.9019666862
  C         7.2576089796        8.9943012272       21.9365667323
  H        20.2741595155        5.3404243766        7.7257855686
  H        19.3552134402        6.7021371530        7.0916636749
  C        20.2025912010        5.2447123800        5.6295169853
  H         3.9605166081        9.1900726975        0.5548669781
  H         3.3223195231        7.7960376907        1.3782050052
  C         4.4495637590        9.1221295718        2.5841089302
  S        13.9218564945        0.9954091625       -4.4813660051
  C        13.5030986823       -1.6514751252       -4.8752433139
  H         7.9104604540        8.2867608603       21.4622415253
  H         7.0383080203        8.6354933684       22.9741743773
  H         7.8499886419        9.8854810768       22.0684232252
  H        19.5447436303        5.7029358206        4.8480882907
  H        21.1868655518        5.7269239231        5.4763336707
  H        20.2590020951        4.1946896605        5.4245750807
  H         4.0066844891       10.1300422190        2.7261858143
  H         4.2843002047        8.5226981901        3.4475238240
  H         5.4889739903        9.4835472136        2.5973898274
  C        14.1963900758        0.0998691897       -6.0284363626
  N        13.9508348960       -1.1902978421       -6.0102413104
  O        13.2507487177       -2.8437383199       -4.7235238347
  S        14.6536469163        0.7744664991       -7.5952323459
  C        13.8741750614       -1.9432018947       -7.2781464859
  H        14.1375196664       -2.9411257320       -7.0370516784
  H        14.6537365104       -1.7470205724       -8.0223632179
  C        12.4695156199       -1.9818370436       -7.9445120259
  H        11.7165171033       -2.3946420649       -7.3078397636
  H        12.6056846185       -2.7329212072       -8.7321209159
  H        12.2848982559       -1.0712395479       -8.4044620370
