352
 i =   121100, time =    60550.000, E =        99.1343431163
  H         9.5965008725        6.3141386862       32.4314167644
  C        10.6793983591        6.3305323139       32.4172967397
  H        11.0674165246        7.1835713156       32.9170246484
  C        11.3081630205        6.3121546049       31.0611708125
  C        11.1737744650        5.1323430784       33.3235289890
  C        10.5853612408        5.4885812546       30.0355453250
  H        11.2844280728        7.3261798709       30.7078777857
  H        12.3715772254        6.0703190522       31.1070439147
  H        10.3816563576        4.5297171285       33.7498839454
  H        11.8361395377        4.5299228091       32.8099125669
  H        11.8655267837        5.3865412431       34.1359493741
  C        11.2938400178        5.0904635152       28.8139966893
  H         9.6012502154        5.9693203372       29.7936199550
  H        10.2545531658        4.5938424431       30.6084407686
  C        10.5680657449        5.5997843817       27.5620267847
  H        12.2702884086        5.4583156767       28.7450893012
  H        11.4517961061        4.0220766115       28.7733884040
  C         9.2822698842        4.8676214021       27.1819397531
  H        11.2360498414        5.4897488588       26.7684993015
  H        10.4170435905        6.6887344785       27.6249284483
  C         8.3503168097        5.8972451770       26.5555740233
  H         9.5554411177        3.9871690539       26.5881980569
  H         8.8565799208        4.5496277214       28.0755797266
  C         7.1378300911        5.2540242981       25.8788387238
  H         8.1051006229        6.6119961555       27.3120695264
  H         8.9628953445        6.3806679459       25.8135979271
  C         6.7023229401        3.8812565755       26.5276763621
  C         7.5088426672        4.4856323179       24.6295667462
  C         5.8789185380        6.0588022055       25.8459541059
  C         6.8004047206        2.7807159824       25.6933171704
  C         6.1392215409        3.5516344986       27.7534633606
  C         7.3374705874        3.1519282781       24.5108555692
  C         7.9827788490        4.9881219170       23.4955435202
  H         6.1187621080        6.9495370571       25.2781901116
  H         5.7004278604        6.2441997721       26.9178006035
  C         4.5865990828        5.4244768794       25.2126570467
  S         6.2529994027        1.3400578234       26.4073932101
  C         5.9426815345        2.1633913846       27.8871366687
  H         5.9446488557        4.3567051011       28.5436707873
  C         7.6788415948        2.5011826428       23.3748602038
  H         8.2252867143        6.0191629689       23.3739143616
  C         8.1849798553        4.3771430915       22.3332445970
  H         4.7531801441        5.2552805515       24.1918984607
  H         4.3230803030        4.4605092840       25.6194606658
  C         3.2948211220        6.3773340785       25.2646934851
  C         5.5416699127        1.3979084729       29.1672577963
  C         8.1153615069        3.0614899270       22.1725627022
  H         7.6118645344        1.4341607657       23.3828226307
  C         8.6026629159        4.8039259280       21.0705566261
  H         2.5840923788        6.0001460603       24.5047584500
  H         3.5885753682        7.3785820078       24.9173451829
  C         2.7397286637        6.4434345905       26.6340416271
  C         5.6505482634        0.0045867348       29.2965253943
  C         5.1227680886        2.1920077979       30.2842951616
  C         8.5071136557        2.3841249986       20.9290751925
  C         8.7487711470        3.7520899459       20.2017857083
  S         8.9058480907        6.2958831971       20.3125698981
  H         1.8058831950        6.9944367334       26.6432628119
  H         3.3921850926        7.0181938987       27.2983987583
  C         2.2288472385        5.0831346614       27.1718805854
  N         6.1036032732       -0.8989210819       28.3982912134
  C         5.3128027716       -0.5583683621       30.5154443913
  C         4.7386586427        1.6155408879       31.5026926985
  H         5.1556738037        3.2559225271       30.1439281876
  C         7.4061868876        1.4915284118       20.2413809810
  C         9.8337153207        1.5017820205       21.0838534415
  C         9.1200192210        4.0796651454       18.9312365135
  C         9.3325363796        5.4614601210       18.8860999009
  H         1.7258571085        4.5933711997       26.3872795773
  H         2.8865328062        4.3183719934       27.6308344725
  C         1.1560957703        5.2535445744       28.2362658779
  S         6.0900470828       -2.3301308576       29.1037961606
  N         5.5952247394       -1.8922187847       30.5763778675
  C         4.9897254962        0.1681698713       31.7106733780
  H         4.4282115845        2.2445507561       32.2639630699
  H         6.7351453427        1.0497596603       21.0360021280
  H         7.7592174706        0.5995369601       19.7710556803
  C         6.6534322032        2.1697582833       19.1445535074
  H        10.1267840415        0.9259294566       20.1050363037
  H         9.6813628148        0.7443840678       21.8444687286
  C        11.1202021270        2.3096409095       21.5193437923
  H         9.2500707009        3.3530654818       18.1536042809
  C         9.6241551286        6.1883006313       17.6194193872
  H         0.7691325479        4.3099226550       28.5506000032
  H         0.3939020942        5.9209426469       27.8892365878
  C         1.7982833148        5.9636409028       29.4561377013
  C         4.7899549236       -0.5477776559       32.9549596072
  H         7.2829718874        2.4301850933       18.3398595268
  H         6.2277498664        3.1040338872       19.4636932881
  C         5.6098521708        1.2332381799       18.6300540226
  H        11.0041458610        2.8412832434       22.5034245156
  H        11.3483252579        3.1062421692       20.8024191352
  C        12.4602507425        1.4726535680       21.6384128899
  C         9.8086730799        7.5856778264       17.4234221593
  C         9.9309911748        5.4010291489       16.4011758170
  H         2.4994752715        6.8136243717       29.2237019674
  H         1.1015122212        6.4354758517       30.0217814506
  C         2.5435543597        4.9780489205       30.3855313481
  H         4.7881797492       -1.5852822796       32.8173935975
  C         4.4598479394       -0.2066219495       34.2115734666
  H         5.1022542147        0.9247160159       19.5572917986
  H         6.0491959167        0.3400557105       18.1800604101
  C         4.6196897064        2.0652832290       17.7665318574
  H        12.2485520423        0.7201519123       22.3223168801
  H        12.4973993263        1.0056091478       20.6249704880
  C        13.6941894106        2.3427628128       22.0688065621
  N         9.4428717295        8.5578428856       18.3727158718
  C        10.1156722196        8.1414037025       16.1826121879
  C        10.3081104340        5.9937121017       15.2049511734
  H         9.9392422982        4.2856991401       16.4041627057
  H         2.7398656252        4.0093599626       29.9436454952
  H         3.3907062279        5.4731583707       30.8220562786
  H         1.9066877397        4.7112191538       31.2107962480
  S         4.1054156344        1.3395871364       34.8850611868
  C         4.4720611033       -1.3617105214       35.1450298605
  H         4.5876143930        3.0919064674       18.1308797777
  H         4.9072176876        2.1050302477       16.7472562721
  C         3.1772353912        1.4619707008       17.8534471127
  H        13.5948863620        2.8051195052       23.0465279671
  H        13.6752141534        3.2740450373       21.3966598494
  C        14.9800003696        1.6037747136       21.8666827237
  S         9.5269426051       10.0340808768       17.7452036784
  N        10.0707185619        9.5364536776       16.2532284641
  C        10.3626709591        7.4982551790       14.9554776292
  H        10.4346180402        5.3711757516       14.3203578918
  C         3.9466583707        0.4559228165       36.4075440636
  N         4.1123708328       -0.8936235081       36.3533386531
  O         4.6306519523       -2.5409923957       34.8600267680
  H         2.4399284480        2.0258008719       17.2867223075
  H         2.7941906112        1.6195107250       18.8735876041
  C         3.0921679780       -0.0183822762       17.4616931929
  H        15.0953082323        0.9334511029       22.6970773978
  H        15.0471042997        1.0187371195       20.9991414497
  C        16.0055112610        2.6753762801       21.7379072542
  C        10.7541516490        8.1932851361       13.7774537790
  S         3.4971265258        1.2138976767       37.9370347600
  C         4.2016207265       -1.7678927507       37.5082271202
  H         3.4331180600       -0.2064016927       16.4421487922
  H         3.8591422031       -0.3690303722       18.1175220269
  C         1.7357190465       -0.7068815808       17.6794682587
  H        15.5827842737        3.6272351210       22.1159825278
  H        16.2617410542        2.8563884101       20.6652946152
  C        17.2520782745        2.2834452552       22.5592736282
  H        10.7767749459        9.2934168379       13.8696648248
  C        11.2184063626        7.7033118660       12.5636476658
  H         3.4853525136       -1.5031210069       38.2798371141
  H         3.9457143133       -2.8312794238       37.2839846708
  C         5.6640830516       -1.7293125771       38.0239184619
  H         1.1871467870       -0.6663005472       16.7940521689
  H         1.1602418663       -0.1716644776       18.4433094587
  C         2.0104606907       -2.1938847987       18.0715518359
  H        17.5791130026        1.2617275415       22.2877876070
  H        18.0130805562        3.0011191896       22.2630150481
  C        16.9868677629        2.2922918174       24.1689537585
  S        11.5344938014        6.0799581284       12.0540848174
  C        11.3987299324        8.7379963148       11.4931481105
  H         6.3469046647       -2.1927310346       37.3540867917
  H         6.0568595186       -0.7122217906       38.2811025985
  H         5.8097518833       -2.1559371243       39.0363603823
  H         1.1191355978       -2.7586085500       18.3518767658
  H         2.5731851180       -2.1792646554       19.0524145642
  H         2.4066017335       -2.7067833580       17.2489600409
  H        16.6789770967        1.3200018661       24.5285624459
  H        16.1138602857        3.0192281384       24.3938110621
  H        17.8590276599        2.6014315395       24.7052393070
  C        11.9060629769        6.7655930075       10.4459763214
  N        11.9592093162        8.1469650543       10.4045788383
  O        11.1649718583        9.9226142036       11.5766507938
  S        12.5465315552        5.8441732444        9.0681329116
  C        12.3500302198        9.0485745531        9.2329209372
  H        12.8173047157        9.9948530853        9.5982370625
  H        13.1397625116        8.5313893784        8.7055118402
  C        11.1702003430        9.2478553446        8.3515880552
  H        11.6376513406        8.8848715633        7.4508089460
  H        10.2629944226        8.6982039951        8.6557555029
  H        10.9794551032       10.3488676934        8.2397677630
  H         4.1294721373        3.6711311538       13.3040449465
  C         3.2887725039        3.0752532866       13.2644385705
  H         2.4585469704        3.4150906647       13.9915041654
  C         2.7707942282        2.9713351865       11.7965262686
  C         3.6868515620        1.6292527397       13.6816382278
  C         3.9533255040        3.0665414826       10.8231222583
  H         2.1065130255        3.8768658130       11.6345056012
  H         2.1002100824        2.0969302103       11.6381889930
  H         4.5269956315        1.2297750350       13.1810322511
  H         2.8209886843        1.0556603031       13.4422271853
  H         3.9046891281        1.4722509401       14.7726087400
  C         4.4983691081        1.6989127394       10.3047384290
  H         3.6737160209        3.6066703969        9.9481755359
  H         4.7814992920        3.6665624307       11.1419828088
  C         5.0782228786        1.7840127063        8.8815494460
  H         3.7710928143        0.9825206980       10.4035131744
  H         5.2720171279        1.4055061322       10.9638309384
  C         6.3345960995        2.5665028620        8.7494944067
  H         4.3006847956        2.4046755149        8.3590777022
  H         5.1040349689        0.8402211024        8.3622681764
  C         7.7243315060        1.8863798744        9.2790641163
  H         6.5239860525        2.8272054414        7.7321657328
  H         6.1798614664        3.5138723723        9.2687037760
  C         8.9306698544        2.8551551077        9.4216129053
  H         8.0403446186        1.0546618785        8.6801300044
  H         7.5353888531        1.4558390740       10.2283749247
  C         8.5642371623        4.1639228511       10.0739654197
  C         9.2051709567        3.5086378270        8.0971115155
  C        10.0566936004        2.0862049540       10.0948933486
  C         8.5635905993        5.2451669069        9.2039968120
  C         8.3003506685        4.5770643062       11.3781271606
  C         9.0417985007        4.8953678722        7.9641836909
  C         9.6453648361        2.9126961990        6.9253390083
  H         9.7656330465        1.8786390246       11.1385493874
  H        10.1502558544        1.1067089371        9.6417651366
  C        11.3979130579        2.7083826353       10.2406239875
  S         8.1774036943        6.7022528428        9.9325640056
  C         7.9769625874        5.8919662009       11.4282556637
  H         8.3867581254        3.9355506735       12.1612053758
  C         9.3929060505        5.5494279770        6.8229265805
  H         9.7926870344        1.8708610833        6.9738605640
  C         9.9377652268        3.5820683492        5.7559832402
  H        11.0613964608        3.7532122157       10.4687483868
  H        11.8647888011        2.6994049211        9.2742982899
  C        12.3042950053        2.2136131802       11.3509175737
  C         7.3610416879        6.5570680166       12.7026926856
  C         9.7860584047        4.9242903590        5.6100370121
  H         9.4588192944        6.6195465241        6.8252558837
  C        10.3291034868        3.1465331171        4.4839490062
  H        13.3315445365        2.5770306969       11.2921013143
  H        12.3544606527        1.2219070878       11.1055332809
  C        11.7536504614        2.3612596560       12.8125947283
  C         7.4627004618        7.9309733044       13.0359360482
  C         6.8465644661        5.6420063037       13.7247962561
  C        10.2011033791        5.5772462683        4.3277698508
  C        10.4906081364        4.2530478160        3.6518430139
  S        10.5990050348        1.6691765493        3.7497718977
  H        11.3368031597        3.2647954007       12.9645662761
  H        11.0377671276        1.5367872643       13.0487690244
  C        12.8050826084        2.1787311049       13.8609218335
  N         7.9025699971        8.8560465939       12.0982926961
  C         7.1880624057        8.3840130222       14.2973001820
  C         6.5878439811        6.0755945509       15.0502409316
  H         6.5972358082        4.6052350695       13.5001189294
  C        11.5034391938        6.3656810712        4.5103413152
  C         8.9532278868        6.2903084866        3.6623473736
  C        10.8512822577        3.8332790213        2.3220056098
  C        10.9887424390        2.4333770189        2.2387147170
  H        13.5259727543        2.9795218343       13.6489557176
  H        13.3502716887        1.2518228473       13.7688781589
  C        12.3509813100        2.1552513937       15.2872514254
  S         7.9815099829       10.2213139400       12.9854053809
  N         7.3846007413        9.7470645388       14.4256052909
  C         6.7012742508        7.5346653484       15.3301558568
  H         6.3127984994        5.3229886191       15.7430992921
  H        11.3911227650        7.3331401327        4.9870198162
  H        11.8752448132        6.5570298215        3.4897021409
  C        12.6039653681        5.5624035772        5.2612798643
  H         8.7872539356        7.1370965393        4.3373855492
  H         9.2704175125        6.7542328424        2.7042625477
  C         7.6777258787        5.4455807385        3.4375020279
  H        10.9751204647        4.5673195777        1.5773618631
  C        11.3627049243        1.5749885323        1.0477055631
  H        11.6749457129        2.9747436321       15.2927981825
  H        11.7791280359        1.2966051457       15.3339186852
  C        13.5011594145        2.3316249686       16.2758935491
  C         6.3680251624        8.1984187957       16.5796122796
  H        12.4014924442        5.4330766121        6.3123030201
  H        12.7976112553        4.5888624079        4.8537231035
  C        13.9133926120        6.2694939037        5.2601305867
  H         7.3872484895        5.1589521728        4.4245395475
  H         7.9544422844        4.4969936435        2.8665430913
  C         6.5941843396        6.3098709306        2.6121825979
  C        11.4166858882        0.1617079844        0.9916448324
  C        11.6054048836        2.2686760998       -0.2060276132
  H        14.1942926392        3.1378444785       16.0221668628
  H        14.1687658957        1.4931772618       16.1164946271
  C        12.9767768940        2.2432660366       17.7226323984
  H         6.3468774214        9.2412515646       16.5700204559
  C         6.2218099504        7.7463225947       17.8580356606
  H        13.7493910980        7.0650447245        5.9683017630
  H        14.1403247610        6.6666711933        4.2594015795
  C        15.0103499873        5.3028390071        5.8069736903
  H         6.6358203813        7.2747503263        3.1336467700
  H         6.9866768029        6.4185643230        1.6148415892
  C         5.1163534280        5.8931479185        2.5737790465
  N        11.1737549383       -0.6594793179        2.1009139528
  C        11.6334909506       -0.5273897114       -0.1661884877
  C        11.7723855282        1.6579325695       -1.4329889546
  H        11.5397296709        3.3649201916       -0.2352772114
  H        13.7536718485        2.6769445612       18.4520820033
  H        12.7607127404        1.1815678578       17.9758344272
  H        12.1055911211        2.8577053509       17.9515783803
  S         5.9605031660        6.0973002485       18.3216342922
  C         6.1552501017        8.6974757690       18.9913635832
  H        14.6202986723        4.5366590761        6.4261463481
  H        15.5070047487        4.8003668250        5.0131173983
  C        16.1359308043        6.1115329994        6.5462834404
  H         4.7306554948        5.8746773837        3.5385623864
  H         5.0284998657        4.8937732224        2.1820892978
  C         4.3565578789        6.8456054055        1.6894175931
  S        11.1997729811       -2.2293857361        1.6364443230
  N        11.6562596819       -1.9281575333        0.0832810515
  C        11.9636347230        0.1673460337       -1.3910543417
  H        11.8302786436        2.2498570936       -2.3323274798
  C         5.7918440697        6.7246396922       19.9770688923
  N         5.8308243646        8.0545602523       20.1032872042
  O         6.2818792721        9.8905657403       18.9152550714
  H        16.5179520172        6.8704967836        5.8881541090
  H        15.6690378942        6.5500046164        7.4800656567
  C        17.3349934030        5.1136607685        6.9816977988
  H         5.0730939600        7.0121445925        0.9035643722
  H         3.5096456100        6.3806134485        1.1729761844
  C         3.9515648813        8.0955329635        2.2949178421
  C        12.3109289181       -0.5541665183       -2.5218167665
  S         5.2983611284        5.7847312655       21.3706911932
  C         5.7137273796        8.6645148972       21.4028541152
  H        16.9861396998        4.4573668909        7.7608866853
  H        17.5370236459        4.4133539505        6.1749642032
  C        18.6204340717        5.6737393609        7.4512935892
  H         4.0026003956        8.0502368399        3.4322699104
  H         2.9118387933        8.1948524850        2.0114960453
  C         4.7442572627        9.3685022021        1.7223118474
  H        12.0395773926       -1.6392506373       -2.5023543856
  C        12.8571505172       -0.2248674971       -3.7470414346
  H         4.8633439157        8.2227071423       21.9599255088
  H         5.3391543470        9.6280395195       21.2287286764
  C         6.9905429047        8.6600674215       22.1646638214
  H        19.1785602525        4.9593510829        8.0833559726
  H        18.5139939844        6.4551059000        8.1861336783
  C        19.4613145517        6.0645284175        6.2589704399
  H         5.1897593443        9.8020805052        2.5671173520
  H         5.5339590171        9.1911989898        1.1158673463
  C         3.8724412218       10.3026779940        0.9791630659
  S        13.4590391162        1.2763008216       -4.2678805246
  C        13.1691010025       -1.3416454477       -4.7550411110
  H         7.9288374022        8.8225206223       21.7782832728
  H         7.0778115647        7.8461296731       22.7803085381
  H         6.8576928361        9.5449058128       22.8360702711
  H        18.9748713579        6.8491027706        5.7829106069
  H        20.5046797456        6.3469001202        6.4750927673
  H        19.5505235353        5.2977288844        5.4267201960
  H         3.0318389160       10.8128151491        1.4602597118
  H         4.5220429870       11.0487585332        0.5821759284
  H         3.5602923464        9.8263026647        0.0829914236
  C        13.8794496996        0.5451698247       -5.8009793138
  N        13.6943093072       -0.7929011477       -5.8748796163
  O        12.8816521599       -2.5115710272       -4.6634094187
  S        14.5589181836        1.2304621120       -7.2750385239
  C        13.7848083919       -1.5228489249       -7.1187428609
  H        13.8658066622       -2.5808226821       -6.9917156404
  H        14.5557201686       -1.2674566937       -7.8030100863
  C        12.5250355865       -1.4263943024       -7.9864914163
  H        12.4152190146       -2.4527410458       -8.4053297950
  H        12.7498716165       -0.6684795426       -8.7202029434
  H        11.5803471482       -1.1635139857       -7.4404252212
