352
 i =    27700, time =    13850.000, E =        99.8143496091
  H        10.0079521832        4.7194748218       31.8461797252
  C        10.3479771621        5.5502673782       32.3927457374
  H         9.3987833425        5.9941003720       32.6916079229
  C        11.0548148990        6.5521273113       31.3998492928
  C        11.1025121145        5.0452498075       33.6727929074
  C        11.8101608155        5.9124479152       30.2859701356
  H        10.3255514562        7.3287752456       31.0101450818
  H        11.8055196726        7.1985496952       31.9585455853
  H        10.6056670432        4.1964548298       34.0114472788
  H        12.2284130690        5.0084045971       33.4449228934
  H        11.0152518254        5.8022745741       34.3901682475
  C        10.7865345441        5.2901022865       29.2748601874
  H        12.5159282671        5.1695632558       30.6495861444
  H        12.4318321165        6.6852121539       29.8399824280
  C        10.9673837334        5.5755319202       27.7464542815
  H        10.9424586487        4.1584956898       29.4336939760
  H         9.7195577340        5.5110712396       29.5949108452
  C        10.0237504714        4.7095678403       26.8832491609
  H        11.9720369548        5.2588041323       27.6378523646
  H        10.8293418068        6.6070270694       27.5285215179
  C         8.8845234261        5.5765041062       26.2745985379
  H        10.6846227190        4.1753794717       26.1380253400
  H         9.6564831814        3.8731256533       27.5814982332
  C         7.7027085614        4.8420824310       25.5740459784
  H         8.4176836433        6.1960632839       27.0321983241
  H         9.3882390112        6.1593889316       25.5587721717
  C         7.3377356313        3.5009577288       26.2095770206
  C         8.1785552286        4.0856786016       24.3907759188
  C         6.4704402266        5.6753599577       25.3249998187
  C         7.5898042122        2.3757081907       25.4330660575
  C         6.6758204116        3.1086132932       27.4081480477
  C         8.2047831713        2.7667140794       24.2673287841
  C         8.5938972421        4.7229407772       23.1833278655
  H         6.7227526659        6.3390895485       24.4871884132
  H         6.3539327078        6.3059839761       26.2090680212
  C         5.2374788678        4.8241715270       24.9816585370
  S         7.2224225258        0.8502524269       26.1497867690
  C         6.6215964388        1.7350027711       27.5430904875
  H         6.3047254901        3.7624261156       28.0729615324
  C         8.5730408395        2.1727343886       23.0808281490
  H         8.5025097657        5.7841680936       23.2139685255
  C         8.9675872888        4.1565362706       22.0148544261
  H         5.5489385525        4.1812837164       24.1572760193
  H         4.9957733668        4.2947764433       25.9335249474
  C         4.0778153573        5.8191170700       24.5234165474
  C         6.0127602997        1.0517914832       28.6944173849
  C         8.9860815653        2.8271021726       21.9255191928
  H         8.4184511950        1.1294717001       23.0759858222
  C         9.3486053500        4.5811249708       20.7335298371
  H         3.5811228358        5.3904220132       23.6948221549
  H         4.5936601299        6.7119188353       23.9843048540
  C         3.2035718049        6.2446997527       25.7533978972
  C         6.0434193182       -0.3222539282       28.9413262535
  C         5.5022273049        1.9262888376       29.7529018994
  C         9.2989972652        2.1074023405       20.6968468010
  C         9.5811711310        3.4085282768       19.9637063173
  S         9.5420191199        6.0691305852       19.9478182788
  H         2.7694257116        7.2811691965       25.6341076102
  H         3.8638891217        6.2274666511       26.6258094717
  C         1.9856750562        5.2491910165       26.0013421770
  N         6.3923846521       -1.3327547513       28.0734307058
  C         5.6393853674       -0.8951190481       30.1477902566
  C         5.2694363441        1.4118079803       31.0368812829
  H         5.3620206733        2.9306832276       29.6131183591
  C         8.1696060116        1.4554451789       20.0240000061
  C        10.6079107202        1.2411512778       20.6729100894
  C        10.0337513824        3.7737145338       18.6692634192
  C         9.9816050843        5.1384887139       18.4840494042
  H         1.3864946868        5.1707414869       25.1530791598
  H         2.3357163088        4.2271842617       26.1210072988
  C         1.0893705342        5.5530182619       27.1480153682
  S         6.3337557161       -2.7737731128       28.7662065874
  N         5.7673577601       -2.2676562537       30.1410645449
  C         5.3892851732       -0.0618545736       31.2814228155
  H         4.8817237050        1.9931088328       31.8384255490
  H         7.8892019596        0.5955192410       20.6671815732
  H         8.5394186600        1.0093991158       19.0373411085
  C         6.9290833688        2.2413489538       19.7017834373
  H        10.6894208024        0.5919809097       19.7568028835
  H        10.5290287372        0.5580889601       21.4010267581
  C        11.9265867541        2.0918446430       20.9685149547
  H        10.1430177995        3.0231662463       17.9019507418
  C        10.2489775019        5.8738473681       17.1761660826
  H         0.2594943977        4.8860853860       26.9996800142
  H         0.8193170443        6.5867693591       27.0538208272
  C         1.6935346322        5.3257153327       28.5449466028
  C         4.9753503679       -0.7078559143       32.5469450025
  H         7.1358114344        3.0216817069       19.0325129864
  H         6.5578411215        2.7114023894       20.6208823964
  C         5.6964481149        1.3794979472       19.2768268540
  H        11.7651374116        2.7759281070       21.7216636574
  H        12.1846073092        2.6691108651       20.0773644080
  C        13.1952619045        1.2627117363       21.1849178711
  C        10.1955404785        7.2911768364       16.9487391796
  C        10.5912610938        5.1098545235       15.9749264893
  H         1.7787532484        4.2702213101       28.7769603780
  H         2.6189651540        5.8492869435       28.6429654256
  C         0.7062459072        5.8375027278       29.6349784603
  H         5.3442503674       -1.7218474064       32.6109894132
  C         4.5825456377       -0.2664606858       33.7820086193
  H         5.4336140090        0.7281239941       20.1020586784
  H         6.0250533325        0.6738600992       18.4875563628
  C         4.4401504351        2.1767686237       18.9306180473
  H        12.9393867479        0.7308410817       22.0900989969
  H        13.3089195692        0.5352739342       20.4085261296
  C        14.4528156873        2.0613900795       21.3562009282
  N         9.8377321857        8.1562767671       17.9803847725
  C        10.5036198698        7.9444146870       15.8091269832
  C        10.9814374342        5.7334846706       14.8014874351
  H        10.5202594070        3.9934364882       15.9635105247
  H         0.4738391906        5.1122769309       30.3681176607
  H         1.2729320380        6.5992305568       30.2171455629
  H        -0.2631382530        6.1693727952       29.1964366628
  S         4.2421053842        1.3406073868       34.2736723502
  C         4.6512066056       -1.2799383374       34.8397081980
  H         4.2244093999        3.0041966615       19.6652116237
  H         4.4924052684        2.6461646382       17.9618292498
  C         3.1304022350        1.3389982727       18.9888154680
  H        14.2663373875        2.8314820759       20.5598853147
  H        15.3101103623        1.4962097238       21.1870162979
  C        14.6043874625        2.5200984456       22.8123373388
  S         9.7298270758        9.7082186128       17.4151318967
  N        10.3807007935        9.3420936563       15.9354597410
  C        10.8725901646        7.2346599713       14.6549800684
  H        11.3858534838        5.1358090793       14.0240623564
  C         4.2009627773        0.6856318609       35.8832187159
  N         4.1736410720       -0.6577591441       35.9525390893
  O         4.7970674496       -2.4816701288       34.6910428510
  H         2.1909756447        1.9109828135       18.7146671875
  H         2.9078071297        1.0326035351       20.0434743419
  C         3.2585757252        0.0950861255       17.9939324910
  H        13.9128289899        3.3654952716       22.8759196118
  H        14.2655814313        1.6976200395       23.4473308452
  C        16.0146034061        2.9677725884       23.2247428830
  C        11.0399788528        8.0201998937       13.4055693402
  S         3.7865561736        1.5861330844       37.3072203024
  C         4.0191371375       -1.3099932664       37.2569631321
  H         3.2857433943        0.4333310837       16.9757257048
  H         4.2064974983       -0.4112076193       18.1681371810
  C         2.0709578760       -0.8169735262       18.1611883602
  H        15.7897459070        3.3361017275       24.2366192420
  H        16.2615228502        3.8845978599       22.7124364648
  C        17.1430928108        1.8916079555       23.2457877947
  H        10.8408652723        9.0622230173       13.5159766125
  C        11.4237399016        7.7032227638       12.1422601750
  H         3.3673346387       -0.9315655358       38.0210683224
  H         3.6821645623       -2.3516284122       37.1429018775
  C         5.4370443808       -1.4139340364       37.9670384298
  H         1.1300605876       -0.2755449719       17.9473661513
  H         1.9961417597       -0.9935453261       19.1802111212
  C         2.0094768134       -2.0834798614       17.4337182195
  H        17.6508048619        1.8376074547       24.1824294617
  H        16.6822946483        0.9654043489       23.1133260771
  C        18.1174468288        2.0430378822       22.0985298267
  S        11.8514951799        6.1102747071       11.6056950220
  C        11.6309203829        8.7859006695       11.1236167686
  H         6.2468564616       -1.6380347243       37.3181362944
  H         5.6563323721       -0.5077604254       38.4303911305
  H         5.2871303993       -2.1072275831       38.7802505390
  H         1.6221251397       -1.9494947991       16.4422412506
  H         1.5134253961       -2.7938533499       17.9793755054
  H         2.9893394580       -2.4335703343       17.5164707126
  H        17.7569589265        1.6409552848       21.1511841984
  H        19.0002706256        1.5400389141       22.4888977197
  H        18.4677892883        3.0576424988       21.9184821403
  C        12.3171390975        6.9166579112       10.0744780823
  N        12.1122285572        8.2318392224       10.0358566608
  O        11.2811327535        9.9276165471       11.3462394108
  S        12.7119644955        6.0613056903        8.5510512895
  C        12.4758930698        9.1436250174        8.9258867268
  H        13.0370829391        9.9353363483        9.2563821273
  H        13.2152827792        8.6906356179        8.2515638980
  C        11.2832888276        9.5165957117        8.1000557415
  H        11.1686087095       10.6113020097        8.0889914081
  H        11.2973859084        9.2460340149        7.1188666798
  H        10.4199514054        9.0293601661        8.5031973700
  H         5.0491181730        1.2102030429       13.0328503422
  C         4.4755124987        2.1237122091       13.0903554939
  H         5.1425532920        2.9564080410       13.3399912043
  C         3.5646583068        2.3766179246       11.8994349070
  C         3.5148126970        2.0165285607       14.2654579890
  C         4.2556706376        2.6279381945       10.5963904106
  H         2.9240371293        3.2119016294       12.1295402293
  H         2.9882224748        1.4613395093       11.8439834849
  H         2.6914054989        1.2792064190       14.0818543684
  H         3.0638720295        3.0151939941       14.4599119060
  H         3.8029097052        1.7083110425       15.3058914838
  C         4.7358098237        1.3285443258        9.9293812158
  H         3.8553145096        3.3004528928        9.8508503568
  H         5.1736045595        3.0983273052       10.9164957000
  C         5.2579427427        1.6158733572        8.5194354319
  H         3.9599991488        0.5841587867        9.8813809047
  H         5.4883905809        0.8185701544       10.4821107554
  C         6.6132016603        2.3949353242        8.4212191836
  H         4.4551497030        2.0648565170        7.9763833220
  H         5.3103954063        0.7094521379        7.9922940557
  C         7.8534390022        1.6174666909        8.9927483128
  H         6.7504750745        2.4428864415        7.2613462197
  H         6.4946829668        3.3939534399        8.7072780295
  C         9.1640922724        2.4709669304        9.0959317095
  H         8.0652803539        0.6818997445        8.5048316241
  H         7.6112225062        1.2996557512       10.0044431633
  C         8.8402517879        3.7484455971        9.8689595731
  C         9.5535024535        3.2519914065        7.8612066826
  C        10.3033804476        1.7289558090        9.8469256639
  C         9.0285371084        4.9113534229        9.0788826043
  C         8.3587109665        4.0876577801       11.1401058548
  C         9.4239900739        4.5968533640        7.7855701342
  C        10.2284832604        2.6959096010        6.7419634637
  H         9.7125771794        1.1236036429       10.5174316182
  H        10.7272721477        1.0128933041        9.1568969922
  C        11.4932007848        2.6633531191       10.3226419713
  S         8.7436359859        6.3765857323        9.8961706910
  C         8.2008318222        5.4397030788       11.3432764977
  H         8.1837441839        3.3142608839       11.9511952347
  C         9.9122396865        5.3237687553        6.7039998113
  H        10.4338289205        1.6016345754        6.6413068765
  C        10.5788089444        3.3726483656        5.6450214701
  H        11.1741226899        3.5116181258       10.9718828641
  H        11.9627906086        2.9794372283        9.3825989469
  C        12.4858456461        1.9154240778       11.3092642312
  C         7.8308598967        6.0671426387       12.6479072857
  C        10.4163490362        4.7138460228        5.5614641609
  H         9.7848126360        6.3788144559        6.7492714315
  C        10.9572493033        3.0484884396        4.3909468825
  H        13.3085279163        2.5188552173       11.5292028508
  H        12.8303559659        1.0185665798       10.8329778650
  C        11.9140776113        1.4930682736       12.6891800548
  C         7.7234051816        7.5005513464       12.8465717038
  C         7.2716357006        5.2398001250       13.7741352412
  C        10.8806462515        5.5309082823        4.3472872103
  C        11.1402615250        4.1712184817        3.6310753230
  S        11.2509786083        1.6359649102        3.5677365191
  H        11.1542889764        2.2043164576       13.0722836114
  H        11.3035475934        0.6504689087       12.5242970228
  C        13.0001700326        1.1989395855       13.6699765001
  N         7.9607799941        8.5222445405       11.9179548908
  C         7.5043197077        8.0552892176       14.0831796774
  C         7.0504174688        5.7937011044       14.9969731681
  H         7.1804997282        4.1467778279       13.8195881482
  C        12.0603842132        6.4134069581        4.5968945000
  C         9.6499919879        6.2432320762        3.7566600055
  C        11.5565591631        3.8516855260        2.3072051158
  C        11.6471897103        2.4750230456        2.1366029752
  H        13.5442016268        2.1176757924       13.8726559596
  H        13.7872129367        0.5482739698       13.1158354643
  C        12.4137138402        0.4256950838       14.9151086224
  S         7.8743681155        9.9418115044       12.6962120595
  N         7.4848619513        9.4121655796       14.1493102735
  C         7.2318470101        7.2319568099       15.2082132617
  H         6.5870637360        5.1764143283       15.7515581273
  H        11.8254726094        7.0009713532        5.4831969250
  H        12.2448170272        7.1302493552        3.8320493772
  C        13.3532605898        5.6403698681        4.6871697053
  H         9.2117704700        6.9291176503        4.5401479506
  H         9.9694248585        6.9967656213        2.9883882049
  C         8.5694072737        5.4056815373        3.0237502733
  H        11.9225160046        4.6236206026        1.6845647623
  C        12.0736657558        1.7049686793        0.9009282430
  H        11.5828709642       -0.2472582873       14.5023437897
  H        13.1646397790       -0.2624085051       15.3266733242
  C        11.8930022999        1.2000373747       16.1171403771
  C         6.9862321948        7.8935909213       16.4825301909
  H        13.2331525562        4.8036807233        5.2721774372
  H        13.5701694906        5.2879951731        3.7017618772
  C        14.5127218563        6.4163871190        5.3385618565
  H         8.1841507088        4.6351087381        3.7024953589
  H         9.0031584489        4.9712018316        2.1585589745
  C         7.3131088720        6.2000849948        2.5301616673
  C        12.1052836106        0.3235096259        0.6423275980
  C        12.2089515286        2.5276472904       -0.2931971210
  H        11.0870045955        0.7544040292       16.6944170359
  H        11.5269788093        2.1005943970       15.6927910084
  C        13.0207939687        1.6620163551       16.9744341378
  H         7.1578769210        8.9296187283       16.5071913253
  C         6.6897731894        7.4326655531       17.7274393407
  H        14.2157290148        6.9320834573        6.2423872170
  H        14.9568275959        7.2223360176        4.7305181328
  C        15.5879785876        5.4658605487        5.8840661463
  H         7.0088980504        6.9885299721        3.2065551772
  H         7.5533124878        6.6832099418        1.5874744749
  C         6.1242673760        5.3452783758        2.2449793994
  N        11.9245213761       -0.6788574911        1.6330498003
  C        12.4315287622       -0.1997051493       -0.5644397758
  C        12.6585996557        2.0347169029       -1.4894832653
  H        12.0539290378        3.6085289084       -0.3442911175
  H        12.6553758342        2.2502266241       17.8471360409
  H        13.8764209625        2.1127482835       16.5827242938
  H        13.4326905848        0.8599994852       17.6388008605
  S         6.3608009743        5.8460180741       18.1307608285
  C         6.5429189904        8.4073170959       18.8362207142
  H        15.1432850845        4.6575867693        6.4879536415
  H        16.1296219565        4.9652634055        5.0694153921
  C        16.7457244345        6.1841557147        6.5734127965
  H         5.9504435336        4.7623038116        3.1461253563
  H         6.5055757651        4.6554145431        1.5597278714
  C         4.8157419119        5.9443939338        1.7487813389
  S        12.0612905828       -2.1406223150        0.9208640136
  N        12.5214437856       -1.6226237488       -0.5417702949
  C        12.7382278243        0.5560931334       -1.6889848296
  H        12.6623880710        2.6584761626       -2.3941488821
  C         6.1339712673        6.4458103305       19.7880353909
  N         6.1982334545        7.7498404864       19.9741607668
  O         6.8928559565        9.5631348937       18.8747745543
  H        17.2299641093        6.9412606117        5.9335808270
  H        16.2891746634        6.7835065196        7.2945077434
  C        17.7643028927        5.2068640594        7.1571822260
  H         4.7888273390        6.0932347776        0.6837425240
  H         3.9450917061        5.3109311978        1.8351099851
  C         4.5404330985        7.2865559423        2.2926490123
  C        13.0034758550       -0.1402056154       -2.9095611157
  S         5.6430968814        5.4933077395       21.2059144445
  C         6.4000671893        8.4142558440       21.3045056461
  H        17.4605646409        4.6720322982        8.0880069784
  H        18.0861652991        4.4480365940        6.4009052424
  C        19.0446224334        5.8872775432        7.3993529501
  H         4.9020826871        7.3321752721        3.3119556721
  H         3.4674291324        7.3538767932        2.2831843924
  C         5.2015053993        8.3367673100        1.3703731297
  H        12.6932272488       -1.1994354107       -2.9237884765
  C        13.6351926882        0.2440408757       -4.0455193019
  H         5.6860964237        8.2581617604       22.0875960619
  H         6.2508899872        9.5537503167       21.1823410212
  C         7.8681168670        8.3935108253       21.8530367775
  H        19.5353500891        5.5734941586        8.3065394749
  H        18.7441382421        6.9032918156        7.5966107420
  C        20.0908169812        5.7216095999        6.2661144009
  H         6.1947428356        8.6128765405        1.8541100563
  H         5.3375703934        7.8732440577        0.3876169845
  C         4.4599190815        9.6761338502        1.3558276725
  S        14.3382362672        1.7141672508       -4.4546168308
  C        13.8010722994       -0.8067428918       -5.1337264074
  H         8.2456330814        7.3671111203       21.9472607511
  H         7.9952319941        8.9978205413       22.7858430810
  H         8.5021556913        8.9034806280       21.1560415230
  H        20.4743362795        6.6618134829        5.8777711821
  H        20.9579758021        5.1681865248        6.7042692451
  H        19.8274495482        4.9854429454        5.4928351062
  H         3.3650796344        9.6049844583        1.1589637789
  H         4.6255355316       10.0928127256        2.3254905972
  H         4.8855167863       10.4186900244        0.6500660343
  C        14.4892666154        1.0669275092       -6.0708336312
  N        14.4176762690       -0.2794742468       -6.1879335418
  O        13.3954619772       -1.9250915472       -5.0360840972
  S        15.1271612326        1.8694645108       -7.4750247070
  C        14.4824017621       -1.0006662648       -7.4168557991
  H        14.5558954011       -2.0078742558       -7.1156001060
  H        15.4469581707       -0.7346147188       -7.8796633181
  C        13.2655852679       -0.9388250341       -8.3070635372
  H        13.3995092369       -0.2881132627       -9.1540998111
  H        12.4248075764       -0.5774359962       -7.7076095012
  H        13.0754233185       -1.9839903634       -8.7128349326
