352
 i =    93100, time =    46550.000, E =       100.1979027317
  H        11.9347217106        7.0662229742       32.2988166135
  C        11.5839059265        6.0713171090       32.2743923007
  H        12.4756706553        5.6048537018       31.9677581687
  C        10.4939438165        5.8133114780       31.2359510134
  C        11.2256965767        5.4131117985       33.6226748023
  C        10.8873266853        5.8770828046       29.7460948908
  H         9.9892189774        4.8012675575       31.3082683396
  H         9.7684162304        6.6281544453       31.2996015194
  H        12.2029309800        4.9576533254       34.0505198580
  H        10.8983470386        6.1961630349       34.3272894913
  H        10.4836501777        4.5509107218       33.5589436102
  C         9.7422176811        5.6364301620       28.7155389544
  H        11.6390105298        5.0991607935       29.5278295119
  H        11.3120721800        6.8402452754       29.5976682370
  C        10.2087695212        5.8188499994       27.2929496018
  H         9.3347365313        4.6440101269       28.9342569132
  H         9.0424251588        6.3490346249       29.0816099716
  C         9.3372551200        5.0942226544       26.3670368631
  H        11.2225707907        5.3637429463       27.0998629735
  H        10.2756752135        6.8540764925       26.9566895860
  C         8.0929760646        5.9477882050       26.2174353513
  H         9.9133525057        5.0342635866       25.4498752905
  H         9.1367608220        4.0534489108       26.7084198303
  C         6.9398089768        5.2500141514       25.4802751679
  H         7.6241416446        6.2325832272       27.1849247112
  H         8.3676379222        6.8926300698       25.6678715474
  C         6.6127283019        3.9276278659       26.1665830187
  C         7.3760927307        4.5298031204       24.2256419639
  C         5.7766832267        6.2404796883       25.1870333474
  C         6.8759762426        2.7846208716       25.4157568637
  C         6.0674708238        3.5406893099       27.4043396221
  C         7.4215630656        3.1988071122       24.2157011401
  C         7.8811709251        5.1195689770       23.1516896197
  H         6.0225447021        6.8638360820       24.3721459761
  H         5.7189031410        6.9136084204       25.9762524932
  C         4.4912496720        5.5330844718       24.8496833307
  S         6.4631564510        1.2895042624       26.1284418478
  C         5.8815088815        2.2252419100       27.4595762923
  H         5.9505898289        4.2499456947       28.2153680968
  C         7.8411214601        2.5550634425       23.0872294130
  H         8.0840360258        6.1702522717       23.1818342762
  C         8.2787757681        4.5154222659       22.0161543119
  H         4.6396120035        5.1906537737       23.8242629471
  H         4.3914290630        4.6055096984       25.3688861357
  C         3.2147847899        6.3949144955       24.9259328771
  C         5.4641298166        1.5152349716       28.7078831842
  C         8.3327375704        3.1701992018       21.8986364591
  H         7.8410890501        1.4728058834       23.1343758003
  C         8.8341150496        4.9013973668       20.8261805364
  H         2.4883351593        6.0418177628       24.2250986835
  H         3.5099632490        7.3758211207       24.5743386442
  C         2.5665282025        6.3735526846       26.3114656067
  C         5.7411441475        0.1726447659       29.0046198292
  C         5.0275342120        2.3657515488       29.8907290920
  C         8.8161776943        2.4814470721       20.6886606432
  C         9.1257103941        3.8126234802       19.9591463538
  S         9.1454231020        6.4040940755       20.0190324263
  H         1.8361691621        7.1673343150       26.1825260631
  H         3.3435330363        6.5731289131       27.0832861587
  C         1.8826175010        5.0882528968       26.7997444875
  N         6.2077853071       -0.8777728545       28.1159202268
  C         5.4739932117       -0.3607299323       30.3053964028
  C         4.7125120822        1.8333599046       31.1368783356
  H         4.6722722156        3.3718573020       29.7181427346
  C         7.7960324635        1.6957926859       19.8307382061
  C        10.1059430153        1.7457191124       20.9110535933
  C         9.4726826768        4.1947136755       18.6845951990
  C         9.5713609480        5.5477873914       18.5445033454
  H         1.4129468675        4.5514468992       26.0377484545
  H         2.6430043311        4.4306328974       27.1038748834
  C         0.9547684822        5.2499398215       27.9256300355
  S         6.2567605816       -2.2494662628       28.9876683354
  N         5.8161004455       -1.7119030891       30.4600754873
  C         4.9565943069        0.4167158508       31.3861869386
  H         4.1079989080        2.3999088239       31.8665781282
  H         7.6490169566        0.7114601862       20.3444197190
  H         8.2353007718        1.5759406369       18.8873853864
  C         6.5437766690        2.4897723437       19.5511352413
  H        10.2882430474        1.2176710713       19.9581586261
  H        10.0529053810        1.0421341484       21.7290751034
  C        11.3365491842        2.5001437561       21.3232479219
  H         9.7947949605        3.3713338816       18.0399007431
  C         9.8799256549        6.3456584699       17.3001664671
  H         0.4726712771        4.3032812941       28.0457541870
  H         0.1377491506        5.9873696044       27.6700498379
  C         1.6396121280        5.6986479253       29.1832146438
  C         4.9084110428       -0.2520182308       32.6557130613
  H         6.7342870185        3.5884435504       19.6749416926
  H         5.9310984368        2.2368627144       20.3501404164
  C         5.9401880388        2.2635046612       18.1736369582
  H        11.1181268093        3.1919385098       22.1676881306
  H        11.8496520699        3.1274354446       20.5661875818
  C        12.4810535819        1.5448457480       21.7951025518
  C         9.9839789010        7.7361623473       17.1985232452
  C         9.9960215251        5.6290774988       16.0553108135
  H         2.6913059484        5.3579848431       29.2366940997
  H         1.6221773293        6.8175936931       29.1185756546
  C         0.8487201262        5.3537781690       30.4444454431
  H         5.2347047445       -1.2259376726       32.6794916763
  C         4.7005022388        0.1441366866       33.9630070960
  H         6.0770663162        1.2373437511       17.8267305410
  H         6.6637781712        2.7559339251       17.5148216700
  C         4.5401439151        2.8275778065       18.0577475021
  H        12.0393122053        0.7042411357       22.3506741260
  H        13.0091997380        1.0908946528       20.9644404332
  C        13.6167394819        2.2503794730       22.5957405037
  N         9.8006659520        8.6653877660       18.1711960371
  C        10.2630790183        8.3601812775       16.0497752381
  C        10.2747428543        6.2757491213       14.8715695134
  H         9.8137560514        4.6002757844       15.9373442748
  H         0.3560693445        6.2913475813       30.8065674135
  H         0.0074770912        4.6124620357       30.3521041668
  H         1.4920978204        4.7737229451       31.2235644502
  S         4.3392369907        1.8045840403       34.4680647665
  C         4.5670878471       -0.8354906725       35.0769394570
  H         4.3661630118        3.2739577948       19.0697307188
  H         4.5378095657        3.6351174977       17.3265298508
  C         3.5518308416        1.7545548455       17.4847440167
  H        13.0850728094        2.8429531659       23.3162187728
  H        14.2545945428        2.8901341983       21.9878375796
  C        14.4870454218        1.2811358118       23.4944083619
  S         9.9506656620       10.1882894418       17.6407050592
  N        10.2593174131        9.7617839736       16.0711601095
  C        10.4551391031        7.7656001952       14.7973396928
  H        10.2888794713        5.6789253166       14.0144294020
  C         4.1560651880        1.1882132787       36.1681280572
  N         4.3011490405       -0.2057131306       36.2186093053
  O         4.6764471305       -2.0307404924       35.0315308677
  H         3.8813220612        1.3786088016       16.5470802583
  H         2.6095489413        2.2599819160       17.2728521459
  C         3.2768159177        0.6757339750       18.4946693367
  H        13.8672229546        0.6861826023       24.2308861366
  H        14.8522249230        0.4138538163       22.9306864983
  C        15.6684321446        2.0088370026       24.0575375665
  C        10.7696351064        8.4914316456       13.6144066645
  S         3.7464899068        2.1154307655       37.6505834420
  C         4.2334874542       -0.9183556178       37.5720940095
  H         4.2239239616        0.3397709816       18.9585224669
  H         2.6120394992        1.0885854349       19.2882944721
  C         2.4787343810       -0.5586001122       18.0179035634
  H        16.0215249186        1.6070613494       25.0099107927
  H        15.4321194723        3.0798204702       24.3063099139
  C        16.7278582867        2.0393120207       22.8869596650
  H        10.5032550817        9.5331651912       13.5925198104
  C        11.2589523860        8.0344120141       12.4527172337
  H         3.3696215602       -0.5978833757       38.1889278749
  H         3.9242040423       -1.9082784691       37.2707946126
  C         5.5203965759       -0.9315515119       38.4559246959
  H         2.8034570373       -0.9193368073       17.1018529892
  H         1.4048545819       -0.4450101258       17.9091506914
  C         2.6717169692       -1.6815951985       19.0377831911
  H        16.3553590398        1.8199114158       21.8769930617
  H        16.8786765151        3.1225723639       22.8302163567
  C        17.9944256374        1.3305497465       23.0541865795
  S        11.6239063803        6.4279512123       11.9358318393
  C        11.5948400088        9.1021728043       11.4594803118
  H         5.3256225547       -1.0475417892       39.5441648697
  H         6.2471724182       -1.6724640292       38.0782693762
  H         6.0407782192       -0.0312355370       38.4463770359
  H         3.6562377554       -2.0228996832       18.7298378489
  H         1.9504318328       -2.5501676965       18.9881447243
  H         2.6093704823       -1.4141559748       20.1400450872
  H        18.8765981314        1.9908306168       23.1665243985
  H        18.2336601211        0.8395399618       22.1313844749
  H        17.9270625956        0.7355256347       23.9139094148
  C        12.3219083126        7.1494669320       10.4466886912
  N        12.1634313059        8.5358800901       10.4093068122
  O        11.4119829811       10.3655359462       11.5067186877
  S        13.0127544322        6.2949482413        8.9970903442
  C        12.3632620667        9.2864437397        9.2013824959
  H        12.7923190697       10.2555252457        9.4220673715
  H        13.0481595694        8.8864793908        8.4001323224
  C        10.9814429372        9.4704789516        8.5578031509
  H        10.3495351397        8.5872275763        8.4658371940
  H        10.3904868058       10.1967132652        9.1160444587
  H        11.0246540168        9.9493788517        7.5582947171
  H         4.3405118660        2.0404608121       12.3912343434
  C         3.5081316915        2.7802567752       12.3205654430
  H         4.0084606892        3.7845597989       12.3364976401
  C         2.6466601509        2.5689391850       11.0815081189
  C         2.7652482459        2.6675028797       13.6816149599
  C         3.4717830796        2.6145490511        9.8407274162
  H         1.8968703605        3.2645853859       11.1105014491
  H         2.1440409594        1.5592834204       11.2003359853
  H         1.9379224067        3.3770605451       13.7033114391
  H         3.3391377219        3.0062458060       14.5223518805
  H         2.4509633492        1.6529233210       13.9345278947
  C         4.3581383555        1.3592442823        9.5456131203
  H         2.7121462836        2.7801296221        8.9852488602
  H         4.1210095729        3.4529045461        9.8952237875
  C         5.4717605741        1.4112317261        8.3656772407
  H         3.5732856687        0.5758299135        9.2945900551
  H         4.8476867666        0.8646628998       10.3531754259
  C         6.6663420208        2.3096276018        8.6017034161
  H         5.0026623107        1.8745695269        7.4939975083
  H         5.9198153807        0.4992777771        7.8947050562
  C         7.9468938365        1.6742595999        9.0947527429
  H         6.8186012168        2.8604658832        7.6775260818
  H         6.3805607202        3.0803324423        9.3733497903
  C         9.1616170689        2.6655132461        9.2502772887
  H         8.1107942107        0.9725193719        8.2458260368
  H         7.8885722000        1.0010286007        9.9650990925
  C         8.7550399413        4.0081696387       10.0169024028
  C         9.5297497959        3.4013757938        8.0114781579
  C        10.2786827008        1.8248561186        9.9337726907
  C         9.0493426464        5.1221485266        9.2180624616
  C         8.2207324211        4.3940057527       11.2520502781
  C         9.4755283598        4.7697671536        7.9758126663
  C         9.9393829356        2.8860917381        6.7864844259
  H         9.9426304789        1.4389015216       10.8588799247
  H        10.6333375917        1.0783033620        9.2595120593
  C        11.5926159836        2.6371214385       10.0544125765
  S         8.7159805515        6.5755270459        9.9403020241
  C         8.0857896989        5.7535856182       11.3155773899
  H         8.0557091158        3.6607386116       11.9682277202
  C         9.9180686932        5.4505504692        6.8623671484
  H        10.0719127514        1.8492379922        6.7698959829
  C        10.3842182942        3.5631130288        5.7296987511
  H        11.3286362375        3.6001583599       10.4322769254
  H        12.2009564361        2.7803845395        9.1567915793
  C        12.5866604216        2.0526606968       11.0583760248
  C         7.6627725386        6.4718356556       12.5188564979
  C        10.4169796876        4.9265707219        5.6834187425
  H         9.6933079462        6.5276534063        6.9059465061
  C        10.8320600380        3.1146057099        4.5207134478
  H        13.5678120651        2.0537627324       10.7036132096
  H        12.3990633707        1.0391772318       11.0541837370
  C        12.3518391846        2.6621711729       12.4781700018
  C         7.6485968067        7.8776781136       12.7347269386
  C         7.2044063010        5.7341088410       13.7058930267
  C        10.9187961336        5.5840733559        4.3929450299
  C        11.1298330487        4.2134799960        3.7031480817
  S        11.0569164759        1.6339479878        3.7535307710
  H        13.0195524378        3.4369737287       12.7574333528
  H        11.4304830757        3.2680081461       12.6190970724
  C        12.4852730088        1.5405719758       13.5845821328
  N         8.0103452785        8.7965426734       11.7566162774
  C         7.2946944875        8.4941801550       13.9185205458
  C         6.7831352414        6.2869669941       14.9278545994
  H         7.1672825741        4.6604215699       13.6558789854
  C        12.1536974812        6.4487661699        4.7202004712
  C         9.7265624374        6.3644687853        3.7245910355
  C        11.6115674756        3.7865646374        2.4584915865
  C        11.5723711139        2.4151404112        2.2832097136
  H        13.5308751228        1.2243488741       13.6201830045
  H        11.8138573158        0.6552022865       13.3984394629
  C        12.1166831233        2.1913948893       14.9143162492
  S         8.2421341322       10.2759215450       12.5035232955
  N         7.6190928303        9.8654459111       13.9593316094
  C         6.9032902155        7.7559250501       15.1173120069
  H         6.5020381169        5.6203160199       15.7171638896
  H        11.8811433296        7.2377975112        5.3437815082
  H        12.4667769123        6.9744640987        3.8055212954
  C        13.2720943330        5.6638746225        5.3821291483
  H         9.4791499828        7.2570329323        4.3542237111
  H        10.0411703529        6.7009122618        2.8036030993
  C         8.4259392827        5.5395546259        3.4984839395
  H        11.8449382756        4.5494879810        1.7106152123
  C        11.8567925435        1.6860142416        1.0427946722
  H        11.9087440180        3.2340257886       14.7632662050
  H        11.1477919373        1.7519763577       15.1531326292
  C        13.2076298596        2.0399403891       15.9930230068
  C         6.6812889637        8.4561420817       16.3657954990
  H        12.8142896113        5.2782932764        6.2779703794
  H        13.5885658742        4.7338540127        4.8886848185
  C        14.4457367693        6.5423776806        5.6321444410
  H         8.0839921554        5.2013374537        4.4998287363
  H         8.5919350049        4.6422939180        2.9489511746
  C         7.3387011506        6.4767682179        2.9162430146
  C        11.9325199889        0.3150624077        0.8209825526
  C        12.0697334535        2.4801536620       -0.1846169755
  H        13.9947959073        2.7536529141       15.6692161446
  H        13.6432212089        1.0759112686       16.0057143503
  C        12.7901807698        2.3777916315       17.3897875009
  H         6.8465514070        9.4767219004       16.2771158648
  C         6.3862402465        8.0923300535       17.6926061199
  H        14.1680327634        7.4342358566        6.1780293918
  H        14.9434855456        6.8212804623        4.6958413860
  C        15.5276276347        5.9059130988        6.4407453795
  H         6.7680473805        7.0653468278        3.6380008353
  H         7.9241317191        7.2120971398        2.4113051453
  C         6.4344150740        5.7714445357        1.8594398344
  N        11.6635509161       -0.6291772765        1.8199979113
  C        12.0796888206       -0.2928835866       -0.4155920078
  C        12.4068296017        1.8899670536       -1.4098927212
  H        12.1759861072        3.5425051777       -0.0644001991
  H        11.8498147421        1.8618315895       17.6080228761
  H        12.6368109800        3.4436086740       17.6006356149
  H        13.5553475511        1.9646142224       17.9660187677
  S         6.0826876024        6.4569441383       18.3396664538
  C         6.2308013687        9.1397219428       18.7593602936
  H        15.5331137409        6.4500290637        7.4248222678
  H        15.2506744767        4.8183826612        6.6379358287
  C        16.9816381463        5.9184257508        6.0102475393
  H         6.1192887206        4.7401531025        2.0725645742
  H         6.9002435988        5.7061557788        0.9123038860
  C         5.1758126761        6.5958665626        1.6088450202
  S        11.7102952423       -2.1319002976        1.1959074499
  N        12.1486107753       -1.7072852510       -0.2935246616
  C        12.3805286435        0.4386433332       -1.6140661628
  H        12.8245235372        2.5507015759       -2.1931127789
  C         5.9498385903        7.2011289036       19.9607750753
  N         6.0137921581        8.5509162300       19.9947345677
  O         6.2983744263       10.3136888466       18.4632904163
  H        16.8985071633        5.3640398542        5.1285297283
  H        17.1969741378        6.9800633937        5.8155746649
  C        18.0434520956        5.3139522652        7.0210888901
  H         4.6062893778        6.1278393637        0.7523921656
  H         4.5429835527        6.4559803743        2.5015809967
  C         5.2715720456        8.1142474870        1.3927698222
  C        12.7315199035       -0.2641165002       -2.7617496840
  S         5.4670522320        6.3167259091       21.3943593956
  C         5.7537421794        9.2785704988       21.2329556409
  H        17.5537857618        5.1932816700        8.0294920869
  H        18.2833490848        4.2701275841        6.7481715961
  C        19.2421733269        6.1388371019        7.1822944336
  H         5.7730754581        8.3038283296        0.3964202938
  H         5.9775160391        8.5574894616        2.1167137982
  C         3.8808948440        8.8907321494        1.3850922357
  H        12.3537573876       -1.2682774120       -2.7378800585
  C        13.1866428163        0.0970759867       -4.0077169827
  H         4.7919586169        8.9490702506       21.5748986296
  H         5.4854867135       10.3795861353       21.0732878058
  C         6.8353166873        9.1443152996       22.1932634444
  H        19.4702156436        5.9586403713        8.2538942359
  H        18.9906943676        7.2116181176        6.9550396084
  C        20.4119256290        5.7503563412        6.2715921028
  H         3.9552463032        9.9030979491        0.9917333113
  H         3.2416254460        8.2878096091        0.7213751785
  C         3.2349250238        9.0362088657        2.8050691621
  S        13.6451641994        1.7151257614       -4.4123065011
  C        13.3646688797       -0.9576781775       -5.0460445241
  H         6.6670019047        8.3646128877       22.9045671056
  H         6.7202606966       10.0979004437       22.7425242471
  H         7.8002654889        9.1129204539       21.7613210948
  H        20.6471680996        4.7742053022        6.5814794679
  H        20.0387325584        5.6452898948        5.2576368142
  H        21.3967753395        6.2179546176        6.3539328242
  H         2.4957097657        8.2798122223        3.0888798711
  H         4.0291544093        9.1597721615        3.5815181029
  H         2.6722258783        9.9719428273        2.7689199548
  C        14.0835327400        0.9853842706       -6.0689119908
  N        14.0087246915       -0.3949712185       -6.0819841073
  O        13.0104171429       -2.1478311716       -4.9928432387
  S        14.9301017488        1.6986434180       -7.4651978322
  C        14.2707889040       -1.1516388720       -7.3732866826
  H        14.4251526339       -2.1643514747       -7.0246986742
  H        15.1606480098       -0.8932365421       -7.9848973957
  C        12.9841655927       -1.3478306590       -8.1035572906
  H        12.1276219483       -1.3301782498       -7.4499777771
  H        12.9850848485       -2.2385168299       -8.7975010906
  H        12.9633974049       -0.4553560880       -8.7614234528
