352
 i =    77500, time =    38750.000, E =        99.7073281211
  H        11.8904978084        6.8003085928       32.4766052427
  C        11.5224715814        5.7604063990       32.4632200700
  H        12.3794362309        5.0956592460       32.4032965400
  C        10.5024686023        5.5327452915       31.2947334480
  C        10.9106124896        5.5242426044       33.7996277496
  C        11.2547960449        5.6440016494       29.9099367014
  H        10.1496098137        4.5310820829       31.3115612489
  H         9.7277761842        6.3273501509       31.3134877018
  H         9.9142081956        5.8717703441       33.9451042022
  H        10.8476893306        4.4294474246       33.9219631387
  H        11.5235941667        5.8900012833       34.5969406709
  C        10.2117546534        5.6303030259       28.7645774207
  H        12.0095494317        4.9816583944       29.7241558055
  H        11.6839163751        6.6183069283       29.7607606203
  C        10.9018646198        5.6431689362       27.4165423556
  H         9.4341823540        4.8379074456       28.8013226529
  H         9.6642259164        6.5390061200       28.7157131979
  C        10.0027415433        5.1883588246       26.3197794818
  H        11.8154648924        4.9860628849       27.3827331338
  H        11.1173942287        6.6886247729       27.1543858890
  C         8.7797391738        6.0463263076       26.0190233351
  H        10.5604164530        5.0638322014       25.3836213128
  H         9.7116518112        4.1671109779       26.4243436021
  C         7.5166332271        5.2994233865       25.4664817238
  H         8.5081025548        6.6871140709       26.8314231815
  H         9.1264945717        6.8508931167       25.3619459854
  C         7.1674322782        3.9407472027       26.1635428252
  C         7.8133505014        4.5492692374       24.2446888715
  C         6.2283340559        6.1780191074       25.2703362347
  C         7.2768095634        2.8327538156       25.3873745930
  C         6.7609642537        3.6328074437       27.4595914435
  C         7.7111731763        3.1819658980       24.1396531668
  C         8.2989784149        5.0880985033       23.0588991578
  H         6.4549429921        7.1559846732       24.7720630776
  H         6.0319832444        6.5109846075       26.2930350617
  C         5.0729865608        5.3749034096       24.6480306814
  S         6.8930020683        1.3798467722       26.1057807244
  C         6.5663654393        2.2450846134       27.5921470948
  H         6.6991471481        4.4208793751       28.1857598365
  C         8.0569609848        2.4893989472       23.0001499749
  H         8.1459549740        6.0841425611       22.9246209455
  C         8.5998215514        4.4483757800       21.9135321025
  H         5.4191492269        5.2083575518       23.6483577591
  H         4.9092959630        4.3709963193       25.0641463395
  C         3.8313357695        6.2120562322       24.4335331240
  C         6.2227252811        1.5248980777       28.8890660872
  C         8.5248421179        3.1244642598       21.8261837316
  H         7.8835907563        1.4117973875       22.9796618323
  C         9.0938892597        4.8417695105       20.6584683345
  H         3.1013738483        5.8842204520       23.6024722649
  H         4.1534289158        7.1288508219       24.0993319416
  C         2.9032895556        6.3321043609       25.5941139859
  C         6.0623055411        0.0812975005       29.0579716979
  C         5.6712982389        2.3507103021       30.0048211490
  C         8.9205024769        2.4625174514       20.6071564592
  C         9.2472196731        3.7645190867       19.8360125063
  S         9.5254058439        6.3973795242       19.9862472824
  H         1.9715595886        6.7212965388       25.2203937327
  H         3.2543331271        6.9617285764       26.3675892650
  C         2.5894113971        4.9805680551       26.3290600713
  N         6.2971789281       -0.8668868687       28.0881898151
  C         5.7681177900       -0.4445150872       30.3168551916
  C         5.3490309806        1.7932378386       31.2183477850
  H         5.7685431652        3.3830137115       29.8827359167
  C         7.7113078539        1.6524273498       20.0038220290
  C        10.1676897294        1.5968267161       20.8755891868
  C         9.6866030331        4.2114275380       18.6032304239
  C         9.7718367513        5.5523115829       18.4921424157
  H         2.0905442829        4.2422774201       25.7317327756
  H         3.5413880404        4.6057253592       26.7511335128
  C         1.7051421014        5.3083184697       27.5524050756
  S         6.1300832779       -2.3531018758       28.7711880749
  N         5.8029741682       -1.8736543698       30.2979166774
  C         5.4209145557        0.3203396442       31.4423607247
  H         4.9837686494        2.4749895925       32.0437655475
  H         7.3130072133        0.9881052398       20.7138006481
  H         8.1149916461        1.0285022448       19.2330886524
  C         6.5695110546        2.4660466983       19.2395497037
  H        10.3704178702        0.9159780890       20.1455019826
  H         9.9409875764        0.9143433528       21.6885560210
  C        11.3749715825        2.4248569717       21.4317698181
  H         9.6468584721        3.4646389619       17.8216574473
  C        10.0301482672        6.3279103662       17.1806829486
  H         0.9524654287        4.4800419029       27.6532068110
  H         1.2096997627        6.2716373923       27.2980931560
  C         2.5998467636        5.3450521646       28.7890713948
  C         5.1183831518       -0.2910551723       32.6363212173
  H         6.8324958860        2.8013621186       18.2215905257
  H         6.2079777260        3.3053797747       19.8192235439
  C         5.3726556642        1.5553582958       18.9766970644
  H        11.2476825302        2.5587165488       22.4631335091
  H        11.4245800623        3.4570784037       21.1066215037
  C        12.8165149796        1.7478396589       21.1532609866
  C        10.0716705965        7.7507279337       16.9961840981
  C        10.4087021556        5.5747039039       15.9647548124
  H         2.8965030183        4.3215071895       29.0163864507
  H         3.5610497788        5.8573380633       28.6190249511
  C         1.7634011391        5.9207947762       29.9705844757
  H         5.0258358876       -1.4003348681       32.6411743230
  C         4.8771959899        0.1670823564       33.9299329074
  H         4.8118392627        1.4687769774       19.9833405984
  H         5.8224074813        0.5761173199       18.7868641293
  C         4.5596147101        2.1742284237       17.8002771717
  H        12.9577608114        0.8796082928       21.7841864089
  H        12.8695970845        1.1584591845       20.2429245686
  C        13.9599806300        2.7247026305       21.4749066360
  N         9.8465339267        8.6875635475       18.0049603750
  C        10.4219793347        8.4129910235       15.8700311028
  C        10.6600481995        6.2482209577       14.7727198268
  H        10.2010392498        4.4744717084       15.8651256200
  H         1.1674947011        6.7008315992       29.5364626680
  H         1.1038948516        5.2029613532       30.3317995006
  H         2.4103351460        6.3026791636       30.7455948653
  S         4.7983057744        1.7879622290       34.4475727140
  C         4.6165576466       -0.8179762417       34.9412766446
  H         4.3238033044        3.2288446781       17.9867951873
  H         5.0267980870        2.2306267080       16.8008346959
  C         3.1559850705        1.5307900264       17.6896702094
  H        13.4690103525        3.6701549452       21.5563394685
  H        14.6513809789        2.7406324635       20.5882842908
  C        14.6925912581        2.5088268260       22.8464418870
  S        10.0194098262       10.1707270470       17.4426922111
  N        10.6349667006        9.8132155268       16.0259278030
  C        10.8235480797        7.7081916032       14.7466770881
  H        10.7665106623        5.6272108522       13.8561255279
  C         4.3744489757        1.1355455532       36.0274350787
  N         4.2820751648       -0.2275104635       36.0766959222
  O         4.5609736584       -2.0830009740       34.7855426685
  H         2.6205404905        2.2604274391       17.0147774884
  H         2.6131892357        1.5193440562       18.6493622660
  C         3.1795312574        0.1753596218       17.0017019124
  H        13.9900412964        2.8078881134       23.6023290346
  H        14.7915594740        1.4483041889       22.9855710679
  C        15.9338234167        3.4083994425       23.0456668174
  C        11.1364517550        8.4184062294       13.5549932651
  S         3.9862208418        2.1139984185       37.3583303043
  C         4.2935532723       -1.0353675520       37.3349262111
  H         2.8346712037        0.4093749733       15.9487898409
  H         4.1478374148       -0.2332172269       16.9045052751
  C         2.2880013849       -0.7803792646       17.7650980753
  H        16.1587409905        3.6299383052       24.0975075580
  H        15.6983602726        4.3405224043       22.5903892791
  C        17.2960281787        2.9063512394       22.4808724377
  H        10.8493241898        9.4279534392       13.6345191708
  C        11.5911786155        8.0776380959       12.3222534429
  H         3.5763896805       -0.6268503015       38.1060996790
  H         3.9384850182       -2.0179401919       37.1774189207
  C         5.6767231335       -1.0705464993       38.0184651158
  H         2.2493684502       -1.8122010019       17.3552498338
  H         1.1992077674       -0.4955925103       17.7976471872
  C         2.7474239156       -0.9389355661       19.2427317245
  H        17.1011775737        2.4146886554       21.5424861743
  H        17.9780334282        3.7372771013       22.3992139212
  C        17.9994003083        1.9225691090       23.4507876915
  S        12.0658364629        6.5070117223       11.7363480138
  C        11.7027650703        9.1738110760       11.3011308624
  H         5.6749856207       -1.6444917338       38.9421070661
  H         6.3858913046       -1.4935053365       37.2683497392
  H         6.0179870404       -0.0938287935       38.2545952707
  H         1.9091044643       -0.6843037577       19.8399230725
  H         3.4074015867       -0.2242280593       19.5718898036
  H         3.2126929735       -1.9018132152       19.4764751855
  H        19.0753893232        1.6443801522       23.1794041786
  H        17.4018481696        0.9937340245       23.4357209589
  H        17.9007605436        2.1946835229       24.5508682964
  C        12.2829432030        7.3125106462       10.2206539465
  N        12.0846195293        8.6840847437       10.1449294783
  O        11.4020457592       10.3369191557       11.5269683295
  S        12.7276879379        6.5937582138        8.6846574942
  C        12.2576714959        9.5089249473        8.9098713588
  H        12.4036800963       10.5674556103        9.2798409592
  H        13.0670822504        9.0995037912        8.3161813326
  C        11.0517424126        9.5882062030        8.0672602596
  H        10.3497890165        8.9313216172        8.5558602438
  H        10.5744118556       10.5414224874        8.1189617973
  H        11.1434810491        9.3609134538        7.0130862197
  H         2.3922157176        1.0997185361       13.1499391322
  C         3.2032199909        1.8306772548       12.8561056304
  H         4.1434807006        1.2646341321       12.8267457517
  C         3.0408336706        2.3546836427       11.4377460107
  C         3.3450321923        2.8416361698       13.9590680446
  C         4.4097209044        2.5500244406       10.7325145166
  H         2.3195232939        3.1523860512       11.4080525028
  H         2.5335007414        1.6502627221       10.8347723792
  H         4.2429469092        3.4862043758       13.8076732426
  H         3.4654292284        2.3465332648       14.9325895569
  H         2.5025972051        3.4819863486       14.0362954861
  C         5.0689574765        1.2768699244       10.2159910152
  H         4.2833519145        3.2897936059        9.9695892337
  H         5.0292178007        3.0321849337       11.4902122071
  C         5.6297219927        1.3675684605        8.8129061607
  H         4.2746441347        0.4395697655       10.2968352107
  H         5.8902219220        0.9870220744       10.9342423839
  C         6.7615157051        2.3070579546        8.6442560542
  H         4.8081532360        1.6868102087        8.1416227314
  H         5.8007239812        0.3500550277        8.4037133058
  C         8.1089891336        1.7682731337        9.2511671452
  H         6.9256807380        2.5031503163        7.5837341505
  H         6.5144946003        3.2016061625        9.1242346589
  C         9.3842406937        2.7381458292        9.2875187985
  H         8.4615692997        0.9866465848        8.5687711130
  H         7.8067177169        1.1703732548       10.1043619442
  C         9.0382099609        4.0543471802        9.9465803961
  C         9.7953629583        3.5040333790        8.0499210042
  C        10.6518966188        2.0696663542        9.9868190692
  C         9.2293082549        5.1788211127        9.1348501110
  C         8.4277305567        4.3903304019       11.1544851728
  C         9.7188039192        4.8635534277        7.9299783177
  C        10.2190575763        2.9157032805        6.8543887322
  H        10.2787906299        1.7500354260       10.9631444646
  H        10.8309522156        1.1546809342        9.4700429830
  C        11.8508482618        2.9257647919       10.2724087031
  S         8.7871845396        6.6686798001        9.8082116475
  C         8.4643429792        5.7958319323       11.2863435057
  H         8.2786144065        3.5974649160       11.8762591957
  C        10.0679631972        5.5618507892        6.8489651204
  H        10.1565870939        1.8153920327        6.8660171389
  C        10.5795067901        3.6131143038        5.7344801173
  H        11.5493100225        3.8333667334       10.7842610523
  H        12.3288834203        3.0725497501        9.2184757923
  C        12.9744178018        2.4451183472       11.2225898653
  C         7.9481179244        6.5402878362       12.5160074149
  C        10.5594821746        4.9551882860        5.6535360766
  H         9.9462825827        6.6191561135        6.9106854360
  C        10.9605699759        3.2226341329        4.4465948381
  H        13.6996848201        3.1826946509       11.1120528944
  H        13.2547365804        1.4575639161       10.7923489406
  C        12.5019335270        2.4046097187       12.7002711633
  C         7.8397527904        7.9600153012       12.7075712866
  C         7.4293738380        5.7055029015       13.6464784500
  C        10.9206203939        5.6887927702        4.3650750406
  C        11.1871765675        4.3333846680        3.6507556439
  S        11.1972980656        1.7351804510        3.5992788634
  H        12.0417291329        3.3009414833       12.9049967805
  H        11.7757068512        1.6509622686       12.8261688911
  C        13.5619274655        2.0920985842       13.7124890231
  N         8.1946846896        8.9744011880       11.7305284388
  C         7.5732282606        8.5376326330       13.9196688741
  C         7.0317818277        6.3053729287       14.7924596130
  H         7.4644270755        4.6177375356       13.6207859264
  C        12.1905651602        6.5117420603        4.5362646411
  C         9.7766475132        6.5310034780        3.6997436314
  C        11.8069370357        3.9449147891        2.4457168840
  C        11.7472740319        2.5976842469        2.2618067725
  H        14.0961946860        3.0404291167       13.9428628673
  H        14.2826714007        1.4002547734       13.2491662174
  C        13.0859504542        1.3651195017       14.9633232852
  S         8.3701207597       10.3672146319       12.5808207138
  N         7.7793853027        9.9038727792       14.0247229333
  C         7.1054310751        7.7402532857       15.0104482113
  H         6.7643076424        5.7062539374       15.6506040849
  H        12.0337421752        7.1428874870        5.4111777491
  H        12.3167537562        7.1949795771        3.6282943068
  C        13.4765289356        5.6887193783        4.8710053564
  H         9.3060784570        7.2774812973        4.3723310668
  H        10.1176680252        7.1082385728        2.8627837132
  C         8.5988934578        5.6889934224        3.2604761278
  H        12.1414150156        4.6677537546        1.7039698102
  C        12.1678178464        1.8092316130        1.0313434920
  H        12.1792537333        0.8238543366       14.7473221245
  H        13.7755458098        0.5555350797       15.1707166568
  C        12.7994756718        2.2146746331       16.1424565592
  C         6.9589060846        8.3699170214       16.2647234547
  H        13.2897309820        5.2354513101        5.8030312727
  H        13.6263771661        4.8359925523        4.1961815733
  C        14.7431772131        6.4512200767        5.0522918509
  H         8.2187006260        4.9485359931        4.0236612290
  H         8.8932653654        5.1358548632        2.3359252533
  C         7.4135238839        6.6198414328        3.0260253520
  C        12.0826301487        0.4266889555        0.8654972620
  C        12.3879551522        2.6308252805       -0.1729527067
  H        12.2075961638        3.0574908251       15.7068401934
  H        13.7299888439        2.5572068581       16.5263819267
  C        12.0485380535        1.5308799112       17.2787584416
  H         7.2963470670        9.3978119091       16.3198912326
  C         6.6223001003        7.9712807689       17.5422781487
  H        14.5439283444        7.1993887836        5.8170377093
  H        14.9340473724        6.9430073108        4.1171243690
  C        15.8253031798        5.5581280207        5.6123446195
  H         7.1308954802        6.9484830215        4.0329752723
  H         7.7533551501        7.5172945609        2.4209658811
  C         6.2904121357        5.8242008305        2.4142675240
  N        11.8806885904       -0.5126200533        1.8417702223
  C        12.3199284226       -0.1588911559       -0.3497711374
  C        12.5587120369        1.9981609320       -1.3792735971
  H        12.5667201303        3.7168769243       -0.0454637005
  H        12.6317603172        0.6119533529       17.3894041532
  H        10.9661878241        1.3902255524       17.1313417922
  H        12.1752149004        2.1369163558       18.1702699148
  S         6.3065610154        6.4368244228       18.0737841722
  C         6.6316345172        9.0128014521       18.6087211639
  H        15.4717320157        4.7402633827        6.1695776430
  H        16.3999372993        5.0758712058        4.8331625644
  C        16.7795979773        6.2496711696        6.6018834235
  H         6.2011429890        4.9292826194        3.0409235068
  H         6.5304032969        5.6255969121        1.3222823938
  C         4.9362322602        6.5600073909        2.5166297468
  S        11.8972460831       -1.9918586549        1.1963833615
  N        12.3094354746       -1.5405033780       -0.3226361905
  C        12.5952049972        0.5252892551       -1.5599277658
  H        12.7185824638        2.6954367833       -2.2151634420
  C         5.9748044556        7.1185908181       19.6462504990
  N         6.2565041381        8.4157927585       19.7448392179
  O         6.8175138493       10.2273077572       18.4312281380
  H        17.3431937468        6.9559865585        6.0447225100
  H        16.2773702844        6.9693310898        7.3539788426
  C        17.7160574167        5.2513487410        7.3165726993
  H         4.1622797965        5.9141170421        2.9821929556
  H         5.1267664784        7.3994007548        3.2634567709
  C         4.6572461201        7.3030043527        1.1888279908
  C        12.7437641065       -0.1234716688       -2.7787256679
  S         5.7695752022        6.0937970579       21.0995083545
  C         6.1488217023        9.1888208637       20.9680633932
  H        17.2440671970        5.0149059025        8.2982109227
  H        17.9055377369        4.4640206700        6.6242788255
  C        19.0484377044        5.9389011486        7.6155579453
  H         4.7332512819        6.5472736667        0.3896091244
  H         5.5022305571        7.9133330997        0.9882996303
  C         3.3868396064        8.1249185112        1.1572504828
  H        12.5564672958       -1.1388841026       -2.7112026446
  C        13.4011142044        0.2065664257       -3.9613932146
  H         5.3286396672        8.7026261059       21.5053422918
  H         5.8139948304       10.2693587889       20.6792099665
  C         7.3975401101        9.1337047933       21.8915845756
  H        19.5147092872        5.4293533209        8.4595621215
  H        18.9298906199        7.0787125187        7.8349406748
  C        19.9392566019        5.8820144700        6.4063536793
  H         3.2290151337        8.1614395030        0.0670228975
  H         2.5428513748        7.6740848234        1.7280025345
  C         3.5828125666        9.5283743685        1.7316272494
  S        14.0153300937        1.7348964550       -4.3617562487
  C        13.4597275336       -0.7839356393       -5.0496259004
  H         7.2907474742        9.7882438998       22.7221048478
  H         8.4017032912        9.2329066165       21.4237425187
  H         7.4234116814        8.0673192580       22.2220466920
  H        19.7816169644        6.6550196798        5.7310932597
  H        20.9380653532        6.1609342566        6.8096181514
  H        20.1019927188        4.9524305253        5.8754072759
  H         2.9077343979        9.6554494801        2.5279505016
  H         4.6002350036        9.8382230660        2.0676753204
  H         3.2252654122       10.1537279311        0.9250473649
  C        14.6293364646        1.0065892684       -5.8528140554
  N        14.2805300858       -0.2893936644       -6.0159438388
  O        13.1021281450       -1.9455365016       -4.9576597066
  S        15.4296843085        1.9091744531       -7.1409542575
  C        14.6335843981       -0.9790066467       -7.2461135918
  H        14.7446723342       -2.0380380445       -7.0319992314
  H        15.5605999067       -0.6808750449       -7.7703910508
  C        13.4037108494       -0.6772719071       -8.1859772624
  H        12.4641836149       -0.4908882562       -7.7243286710
  H        13.3000205029       -1.4038733629       -9.0995601361
  H        13.5680082472        0.2837722246       -8.7130483901
