352
 i =   103200, time =    51600.000, E =        99.8019616294
  H        10.7158685494        4.8041016456       31.7586957138
  C        10.9322950433        5.7457098471       32.2044828934
  H        10.0865925305        6.3568453059       32.3437783976
  C        11.8303939948        6.4837647996       31.1807770265
  C        11.5668598456        5.5301905189       33.4972036934
  C        11.1533184637        6.7235344969       29.8424539184
  H        12.2923691414        7.3759638867       31.6277980679
  H        12.6666910638        5.9088935030       30.9152543861
  H        12.6153982262        5.6270133830       33.3849780209
  H        11.2032908899        6.2602709743       34.2821196103
  H        11.4153250385        4.5034205470       33.8757327480
  C        10.7648001237        5.5382618153       28.8882743007
  H        11.9731130877        7.2824964728       29.2771087074
  H        10.3902315620        7.3929089550       29.9594565166
  C        11.2196399799        5.8742143487       27.5054777423
  H        11.0962278141        4.5349831350       29.1664217366
  H         9.7276168815        5.4438182845       28.9014469069
  C        10.3575003892        5.1585771462       26.4578151766
  H        12.2552606834        5.4956522813       27.4118609236
  H        11.1361318580        6.8583272683       27.3298290353
  C         9.1058073347        6.0194664876       26.2182047837
  H        10.8634296041        5.1997436152       25.5055087387
  H        10.1462762377        4.1436084365       26.7614546906
  C         7.8905487864        5.2642814710       25.6114036553
  H         8.7880538307        6.5990656407       27.0622223370
  H         9.3456487096        6.8398558867       25.5881961111
  C         7.4769563387        4.0076629672       26.3450578053
  C         8.1720697244        4.5336635389       24.3987086288
  C         6.6859301381        6.2872694888       25.5989124914
  C         7.4992658972        2.9226548121       25.5672751222
  C         6.9333328457        3.6738248932       27.6249402957
  C         8.0147965402        3.1905337084       24.3775111848
  C         8.6445360157        5.0410851168       23.1783330650
  H         7.0876931009        7.1645558224       25.0172231933
  H         6.3512437054        6.5748318135       26.5717253792
  C         5.4122481273        5.7889556821       24.7842411100
  S         6.9800388665        1.4228929537       26.3261324767
  C         6.7191073082        2.3214250070       27.8081894309
  H         6.8336967126        4.4403202865       28.3655209291
  C         8.4858745765        2.4246179411       23.3506952918
  H         8.9243452419        6.0778983690       23.0703195379
  C         9.0010677096        4.2565593898       22.1217220381
  H         5.7016759824        5.6708405753       23.7880754037
  H         5.1110330059        4.8231563154       25.2247792156
  C         4.1858544807        6.8079137196       24.8577504912
  C         6.2980980052        1.6724772346       29.0992478147
  C         8.9976150621        2.9323502909       22.1491835184
  H         8.5126277386        1.3593861491       23.4860870023
  C         9.3630590182        4.6412243540       20.8100744399
  H         3.5198938497        6.5706142352       24.0181719573
  H         4.5553858479        7.7929551572       24.6424119950
  C         3.5150674855        6.9774147658       26.2569690141
  C         6.3930416526        0.2774795212       29.2953904594
  C         5.9656204976        2.5939814364       30.2536076452
  C         9.4681415339        2.1452174314       20.9533555499
  C         9.7450938947        3.4536569120       20.1603529407
  S         9.3914700150        6.0559513038       19.8903954797
  H         2.8190953218        7.7742913186       26.0776366412
  H         4.1075774638        7.3595267214       27.0501985999
  C         2.7491725575        5.6812360983       26.5820177414
  N         6.7617603706       -0.6892112931       28.4427032317
  C         6.0093751433       -0.2210134371       30.5115791857
  C         5.6811269508        2.0049254407       31.5042541416
  H         5.8180619951        3.6981338232       30.1836358538
  C         8.3663624368        1.4095717847       20.2512840345
  C        10.7638205130        1.3310564863       21.1125656320
  C        10.1267918360        3.8154288818       18.8247457712
  C        10.0169951853        5.1546136639       18.5650871199
  H         1.8855818190        5.6407308121       25.8590676836
  H         3.2638273595        4.7401955580       26.3351010445
  C         2.3603630930        5.6202413893       28.0023642275
  S         6.7027661148       -2.1961296439       29.0368690877
  N         6.0205467497       -1.6381304099       30.4562364107
  C         5.6320107001        0.5215391420       31.6576379151
  H         5.4560326851        2.6463206131       32.2880283480
  H         8.0317130428        0.6238837061       20.9178775830
  H         8.7934578602        0.8064098559       19.4363852771
  C         7.2241944950        2.1805404289       19.4974185939
  H        11.0130627616        0.6926528208       20.3098606918
  H        10.7805904177        0.6788139229       21.9837259455
  C        11.9079406413        2.1968193083       21.3950140207
  H        10.2088937027        3.0852945369       18.0420459660
  C        10.2955608341        5.9036815799       17.2300062007
  H         1.5951432028        4.8228207045       28.1375447626
  H         1.9264465195        6.5081266398       28.2949054017
  C         3.5578754457        5.3596853547       28.9664870499
  C         5.2874447819       -0.2472205353       32.8084303964
  H         7.5929447433        2.7355338027       18.6412719213
  H         6.9215695848        3.0445464225       20.1768148536
  C         6.0317922834        1.2073868928       19.2647895733
  H        11.7444511272        2.9388628107       22.1647348539
  H        12.2146773812        2.7555369735       20.5227937864
  C        13.2794005309        1.4296723183       21.6317194324
  C        10.2203256136        7.2840114928       16.9553718276
  C        10.4751911691        5.0729610549       16.0065080379
  H         4.1190061087        4.4511987486       28.7594050192
  H         4.2360799713        6.2258258351       28.8165339056
  C         3.1382434375        5.2989120308       30.4150422734
  H         5.2622326307       -1.3253365679       32.6896254060
  C         4.9243643704        0.2028529363       34.0916413233
  H         5.4795614372        0.9851439919       20.1968966558
  H         6.3834879133        0.3296030113       18.8501462238
  C         5.1246388210        1.7119132741       18.2360209683
  H        13.2473999494        0.9231110106       22.5750885676
  H        13.3525428841        0.4867502807       21.0382750645
  C        14.5374051316        2.3271448015       21.4719829764
  N         9.8679516920        8.2749821447       17.8925071828
  C        10.4908616957        7.9300657122       15.7615643418
  C        10.6530255534        5.6553925388       14.7608798013
  H        10.5678170838        3.9942283700       16.1361673708
  H         4.0106052337        4.9642810566       30.9998054041
  H         3.0449499001        6.3825806656       30.7199084425
  H         2.2829742210        4.6812156573       30.6585474903
  S         4.6966567989        1.8144489518       34.6985387708
  C         4.8857574640       -0.8532938991       35.1657188762
  H         5.0727137806        2.8029203558       18.2056810433
  H         5.6579252907        1.5869674606       17.2763997396
  C         3.7277438155        1.1348950739       18.2809603498
  H        14.3053808746        3.2703366432       21.8798728751
  H        14.7831163859        2.5381631807       20.3553807522
  C        15.7820877157        1.7219527360       22.0695823755
  S        10.1339883167        9.7600309308       17.3215578558
  N        10.4624708690        9.2849569412       15.8073723891
  C        10.7647105292        7.1368601107       14.6239878071
  H        10.8959376100        5.0327793155       13.9053909463
  C         4.4938023990        1.0828628440       36.2472053286
  N         4.6318587954       -0.2819271980       36.3230131795
  O         5.0953029314       -2.0422085177       34.9256805571
  H         3.2110471435        1.2515685514       17.3305858917
  H         3.0881156065        1.6929366005       19.0170891020
  C         3.6153108673       -0.3757448477       18.6223488938
  H        15.4886566420        1.2917690961       23.0031853414
  H        16.1234705606        0.8801443288       21.3958604413
  C        16.9452266906        2.7228329885       22.1268316261
  C        11.0857719807        7.9094681316       13.4377994078
  S         4.0081300601        1.9549393094       37.6914000528
  C         4.4483367476       -1.0476278944       37.5653252134
  H         4.4722375328       -0.8596868008       18.1815578099
  H         3.7533252084       -0.4725221521       19.6438627087
  C         2.2482230462       -0.9483446287       18.2381302661
  H        16.6797608716        3.5615760475       22.7661758611
  H        17.2898236126        3.0628295460       21.1492199058
  C        18.2064739208        2.0586596489       22.7339288231
  H        10.8083711495        8.9553887575       13.4135926696
  C        11.6644641072        7.6078543274       12.2332231743
  H         3.7403631445       -0.6824576097       38.2670655241
  H         3.9912978861       -1.9698839838       37.2880370630
  C         5.8356659775       -1.3309615988       38.1293113936
  H         1.6232798567       -0.0360514551       18.1209685277
  H         1.8160622990       -1.4869019295       19.0934894829
  C         2.3019605943       -1.8818380070       17.0152027370
  H        18.5399594069        1.1431266086       22.2321913617
  H        19.0453894603        2.7253126241       22.5139760861
  C        17.9566441853        1.8714189921       24.2359208149
  S        12.4217186695        6.0903546752       11.7431934282
  C        11.7023135592        8.6963003159       11.2854188078
  H         5.8890162529       -2.2746994268       38.6466401744
  H         6.5588492095       -1.3066455587       37.3566493783
  H         6.2117087948       -0.6340313523       38.8878689853
  H         3.2300384093       -2.5001552690       17.0009345265
  H         2.4120360714       -1.2461364950       16.0935516038
  H         1.4344302888       -2.5502729233       16.7567435899
  H        18.8267341425        1.3592456301       24.5505924176
  H        17.0442373085        1.2469364874       24.4278630396
  H        17.8121787715        2.8367130956       24.7140669174
  C        12.4305562645        6.8683047849       10.1816152244
  N        12.3234159725        8.2194310917       10.2194512016
  O        11.2766701394        9.8735761830       11.4661514498
  S        12.9391305115        6.0930485850        8.7409324537
  C        12.4656441739        9.0762921693        9.0197959602
  H        12.7399424082       10.0597217828        9.3966600361
  H        13.4162540227        8.8895187991        8.4155318671
  C        11.1955151084        9.1657059313        8.1493022203
  H        11.0779281039       10.1924425482        7.7989460654
  H        11.1373356417        8.5476949705        7.2035242658
  H        10.3065915628        8.9929350935        8.7164094925
  H         2.4244585293        3.1223725659       12.2381375201
  C         2.8999451732        2.1144812896       12.3740999973
  H         2.1881269885        1.3716419110       11.8965582068
  C         4.2844882299        2.1733998515       11.6675115783
  C         3.0986733456        1.8774678985       13.8930266865
  C         4.1884491892        2.2741229351       10.1239027544
  H         4.6603371533        1.2187323985       11.9521886642
  H         5.0495210309        2.8936357012       11.9692770330
  H         3.2843877903        2.7558280870       14.4050830325
  H         3.9987208771        1.2920074472       14.0963241183
  H         2.1499951065        1.5737434975       14.3711342620
  C         5.0144667585        1.1916916100        9.3691045552
  H         3.0781519856        2.3724693728        9.8744350727
  H         4.6655980461        3.2150698061        9.7848742930
  C         5.6408159132        1.6891530816        8.0790335087
  H         4.3126593773        0.3704262261        9.1833814611
  H         5.7662505782        0.8630267430       10.0360964520
  C         6.8779850450        2.5621510981        8.3382731197
  H         4.9825100378        2.3837048701        7.5130893599
  H         5.7914008475        0.8254968986        7.4187053204
  C         8.0839012163        1.7649644072        8.9109868237
  H         7.2481941985        2.9858572836        7.4719558775
  H         6.6426634971        3.2598900024        9.1138328945
  C         9.3519692792        2.5423938696        9.2132246758
  H         8.3020233848        0.9530433094        8.1680914137
  H         7.8213677874        1.2383727087        9.8540867682
  C         9.0316303259        3.9000469869        9.8828500620
  C         9.7976316836        3.2221711506        7.9733963539
  C        10.4291757028        1.7882658959        9.9512690260
  C         9.2943111287        4.9434306928        9.0915212795
  C         8.5827379334        4.3721064757       11.1280386838
  C         9.8111381157        4.5475607212        7.8654593410
  C        10.2912894681        2.5444964554        6.8466839467
  H        10.0291660923        1.3872376046       10.8673458484
  H        10.7608789029        0.8943897319        9.3924014929
  C        11.7223012980        2.6357586841       10.3119050169
  S         8.9335484649        6.5183040202        9.6832077671
  C         8.4482350379        5.7122500708       11.1100869143
  H         8.4359837736        3.7445742755       11.9369240590
  C        10.1252804047        5.0991733390        6.6814544448
  H        10.2894200930        1.4743859943        6.7662648778
  C        10.6420250783        3.1380738589        5.6691827649
  H        11.2676590644        3.5065580716       10.7663743913
  H        12.2571948506        3.0120787042        9.5211776207
  C        12.7383519147        1.9037356983       11.1552666213
  C         7.8815213397        6.4534058399       12.3053419313
  C        10.5887601015        4.4667843119        5.5396914317
  H        10.1216197603        6.1099554357        6.6427817046
  C        11.0333944204        2.7313485917        4.3984236005
  H        13.6359705889        2.5798459373       11.1671820162
  H        13.0375867078        0.9090984215       10.7482554653
  C        12.2200162594        1.6765430071       12.5579261606
  C         7.9249776315        7.8809986527       12.6183303087
  C         7.2730445057        5.6842296871       13.4280968409
  C        11.0020422605        5.1034313975        4.2626547697
  C        11.2893170651        3.7934599957        3.5711611379
  S        11.3740747349        1.2648261319        3.6673139802
  H        11.6449579580        2.5478829967       12.7956454233
  H        11.4996679362        0.8520311060       12.5851121129
  C        13.3277161192        1.4702367936       13.5757277931
  N         8.3545506413        8.7910881981       11.6370635288
  C         7.5886452935        8.4829617161       13.8293340310
  C         7.0344730145        6.2962793686       14.6398312756
  H         7.0991224822        4.6214958689       13.3148014221
  C        12.3467526810        5.9248614574        4.3165812666
  C         9.8663731787        5.8237589418        3.5303258305
  C        11.8073898788        3.4360901833        2.2818593070
  C        11.6336837053        2.0814728935        2.1509589450
  H        14.2094088799        1.8935879429       13.2146193323
  H        13.4254610367        0.3533123689       13.5973654186
  C        12.8247799395        1.7557116803       14.9451194311
  S         8.2827189213       10.3109909071       12.3664483918
  N         7.5744900126        9.8724586292       13.7556195160
  C         7.0644348596        7.7207367913       14.9337461959
  H         6.5346598314        5.7019325917       15.3750211393
  H        12.2514082142        6.7501559008        5.0323856234
  H        12.5690757152        6.3851918620        3.4285082781
  C        13.6454050700        5.1682364677        4.6768901622
  H         9.6646404690        6.5779665141        4.2395047937
  H        10.2723085165        6.2992642307        2.6375461377
  C         8.7147531979        5.0167085578        3.0619234428
  H        12.0230276347        4.1882193994        1.5416515076
  C        11.9475264937        1.2930608234        0.9135037587
  H        12.3399519868        2.6867509710       14.9284893971
  H        12.0854904572        1.0336960922       15.3326656091
  C        14.0002309187        2.0244718763       15.9190991202
  C         6.8102790348        8.3580405064       16.2001775301
  H        13.5646925048        4.5709709291        5.5702865530
  H        13.8102100198        4.3906565004        3.8328613543
  C        14.9075108374        6.0962989546        4.6571528962
  H         8.1816107843        4.5447630581        3.8437340079
  H         8.9737582738        4.1267172362        2.5358653459
  C         7.6820827711        5.8287314418        2.3266829107
  C        11.9683741817       -0.0365987993        0.7124983122
  C        12.1555848880        2.1003045991       -0.3425775361
  H        14.6497448448        2.7992523141       15.5266650360
  H        14.6555955948        1.1089105877       15.9569784919
  C        13.4408490867        2.2934334574       17.3707553769
  H         6.9624951367        9.4412508796       16.2863471239
  C         6.4974669385        7.9258911029       17.4773763706
  H        14.7851718834        6.9111401068        5.3006562598
  H        15.2171073030        6.4273303053        3.6934236772
  C        16.1022854453        5.3733292659        5.2029854254
  H         7.3739277690        6.5989919902        3.0422855157
  H         8.0741651227        6.3373502126        1.4640410068
  C         6.3903009679        5.0579519867        1.8710014871
  N        11.8127960997       -1.0055980698        1.7016882909
  C        12.2119236263       -0.6323908005       -0.5053373249
  C        12.3448748802        1.5542246532       -1.5968557080
  H        12.1160153425        3.1930003805       -0.3178438190
  H        13.9858195879        3.0201660941       17.9523388811
  H        13.4376877892        1.3884221970       17.9999540745
  H        12.4536878689        2.6812724255       17.3940101149
  S         6.2667494999        6.2377047196       18.0199717359
  C         6.4176244620        8.9145876773       18.5766024775
  H        16.0030459357        4.2960597458        5.1056978131
  H        16.8690535742        5.6818755623        4.4954320371
  C        16.6507345291        5.7373334658        6.6460661689
  H         6.3904762213        4.1258785749        2.4524550180
  H         6.4445651187        4.8002716240        0.8028358045
  C         5.1416587273        5.8450739361        2.0798037251
  S        11.7088980497       -2.4327663516        1.0477736656
  N        12.0672429204       -1.9942688722       -0.4264982675
  C        12.4525407818        0.0484047970       -1.7401804512
  H        12.5917439350        2.2427758421       -2.3703259210
  C         6.2168765001        6.9299708054       19.6814185314
  N         6.2255922172        8.2682321256       19.7194937094
  O         6.6533319028       10.1243913735       18.5256963307
  H        17.2030296320        6.6358264436        6.6745878152
  H        15.7980276323        5.8367972980        7.2981049495
  C        17.5013765739        4.5153423625        7.1724801146
  H         4.3703281773        5.1028977934        1.8100435329
  H         4.8467795376        6.3199322172        3.0204624608
  C         5.0265790469        6.9633000356        1.0693814530
  C        12.9698038960       -0.6606801029       -2.8434407314
  S         6.0123765020        5.9070235080       21.0847603505
  C         6.3094607773        8.9947336801       21.0173362336
  H        16.9590701898        4.0126123790        7.9246955706
  H        17.6910449968        3.6594515995        6.5027950623
  C        18.8892527438        5.1006844029        7.6586385390
  H         4.8012069843        6.5384929898        0.1074385306
  H         6.0296466511        7.3009422964        0.9127618464
  C         4.1838668295        8.1461540358        1.5906768071
  H        12.8637304670       -1.6942405530       -2.6889862603
  C        13.4420150356       -0.3064712800       -4.0877568743
  H         5.5972764320        8.6356262501       21.7181320695
  H         6.1845091381       10.0383166416       20.6951032730
  C         7.8004858942        8.9841047108       21.5778271674
  H        19.4178247546        4.3976478615        8.2757552936
  H        18.7481651958        5.9628923482        8.3228070703
  C        19.7511988956        5.4237963561        6.4561952526
  H         3.5631962789        8.4973269410        0.7417391217
  H         3.5413858899        7.8166194822        2.3647557970
  C         5.0558225998        9.2477752593        2.0884307294
  S        13.8228165971        1.3461308390       -4.5932787893
  C        13.5765121183       -1.3524836323       -5.0930136025
  H         7.7471777429        9.3316750631       22.5916978302
  H         8.5429402008        9.5817332334       21.0803810537
  H         8.2226844564        7.9350931928       21.7219597483
  H        19.7542772840        4.5757216638        5.8339132827
  H        19.4293262352        6.2385271851        5.8263900905
  H        20.8436655728        5.5929098526        6.7792137412
  H         5.5906809375        9.6295184980        1.2984735292
  H         4.3484718673       10.0021657787        2.5671865620
  H         5.6862992472        9.0233746477        2.9493920443
  C        14.2301809156        0.5143335130       -6.1226757024
  N        14.0220294901       -0.8137743490       -6.2680202840
  O        13.2604472472       -2.5287751869       -4.9579784397
  S        14.9943343024        1.3071433857       -7.5199652178
  C        14.0536298968       -1.5388742552       -7.5072217453
  H        14.2742545027       -2.5692640930       -7.3979543864
  H        14.7055216654       -1.1891213290       -8.3008464595
  C        12.6593984981       -1.3260107525       -8.0643203932
  H        11.8682439470       -1.9674480816       -7.7208976492
  H        12.6489986166       -1.3660377437       -9.1134267955
  H        12.3767220781       -0.3403525340       -7.7743035219
