352
 i =   127500, time =    63750.000, E =        99.7862487719
  H        10.7242987901        6.8030351321       29.6528522386
  C        11.4372614759        6.3840683174       30.3200311020
  H        11.8281326937        7.2945731556       30.8710493981
  C        12.5695934392        5.6392558770       29.6601601775
  C        10.7601418928        5.5525998344       31.4262664269
  C        12.1952575598        4.4452023873       28.7072777062
  H        13.0543879167        6.3768449954       28.9921092896
  H        13.2491136134        5.2975036047       30.4212810836
  H        10.3017732498        4.6644383622       30.9765535005
  H        11.5655240281        5.2959847252       32.1463713714
  H         9.9533181674        6.0190830199       31.9691050346
  C        12.2077064667        4.6823417508       27.2327561637
  H        11.2114931508        3.9425768100       28.9319341375
  H        12.9839368599        3.6777867893       28.8155120674
  C        11.1020938398        5.7707203740       26.9140833270
  H        13.2058452081        4.9599540695       26.8106743991
  H        12.1159527631        3.7016301846       26.6728033807
  C         9.9937515829        5.1365000558       26.0393496312
  H        11.4629912690        6.5697098387       26.3219440934
  H        10.7559607104        6.2529902114       27.8507530564
  C         8.7441987521        6.0376056319       26.0424852781
  H        10.3532397011        5.0552666024       25.0560780761
  H         9.6858920923        4.1839509886       26.5125893296
  C         7.4391359452        5.4663298718       25.4626420983
  H         8.5269763055        6.5562338084       26.9516752961
  H         9.0662084412        6.7992408870       25.3976645950
  C         7.1219237567        4.1281190885       26.1592014030
  C         7.7949855358        4.7412883509       24.1861092372
  C         6.1883487212        6.4033061661       25.6096557711
  C         7.1120142920        3.0482045083       25.2430867386
  C         6.5253001986        3.7844666861       27.3648369235
  C         7.7037868535        3.3934763018       24.0235069526
  C         8.1884612522        5.4221674495       23.0478818097
  H         6.5361464465        7.3310990236       25.1292376050
  H         5.8692876447        6.6373495347       26.6725781877
  C         5.0150596125        5.9063894329       24.8518912156
  S         6.3988854990        1.6229448440       25.9182382799
  C         6.2778148466        2.4322040607       27.4493922525
  H         6.2741681719        4.5706816279       28.0610828172
  C         7.9387768180        2.8199441435       22.7997688438
  H         8.1528366872        6.4619055580       23.1186265400
  C         8.6117941817        4.8414678605       21.8558160003
  H         5.2404340028        5.6779100789       23.8019636596
  H         4.7564159201        4.9483326101       25.3381033202
  C         3.9343558903        6.8829315366       24.8513511481
  C         5.9511217005        1.7244523290       28.7242263171
  C         8.4364093114        3.5013562028       21.7277828847
  H         7.7544525256        1.7798457717       22.4313084736
  C         8.9423907371        5.2696839739       20.5832012585
  H         3.2676063722        6.6040601364       24.0357568086
  H         4.3663517755        7.8656202677       24.6135095900
  C         3.0625993432        6.8434501564       26.1615669812
  C         5.9371192541        0.3287399357       28.9032600513
  C         5.7891749726        2.4977443470       30.0082226022
  C         8.7919871326        2.8291065434       20.4101228794
  C         9.0194017668        4.1821857553       19.7384110918
  S         9.2020292165        6.8366870487       19.8839074562
  H         2.2125974265        7.5053985711       26.0160807813
  H         3.7581785116        7.1948018154       26.9336838865
  C         2.4435265417        5.5355272906       26.6965816961
  N         6.1666134098       -0.5952438029       27.9192086438
  C         5.6719249236       -0.3101089683       30.1164358704
  C         5.3202814778        1.8028207230       31.1641415081
  H         6.1646779808        3.5159950147       29.9935632743
  C         7.6272431017        2.1286435927       19.7425440514
  C        10.0889627553        1.9793346979       20.5413019139
  C         9.4723889273        4.6490824739       18.4765328365
  C         9.4901336020        6.0122248672       18.3776646494
  H         1.8298372070        5.2197910565       25.8070374095
  H         3.2432349309        4.8135930048       26.7873901294
  C         1.4931040656        5.5620006523       27.8390305649
  S         6.1875095111       -2.0944401392       28.5222731792
  N         5.8066833678       -1.7248227649       30.0563703401
  C         5.4282924721        0.3956547433       31.3065946273
  H         5.3204149991        2.4348728883       32.0456486786
  H         7.2843702929        1.2628541280       20.3011994703
  H         7.8475547494        1.7752902836       18.7900242433
  C         6.3813781732        2.9773078206       19.4693138691
  H        10.4731305556        1.7925982316       19.4723935218
  H         9.8298542229        1.0197337144       20.9635138644
  C        11.1645259909        2.7006850260       21.2988484112
  H         9.6050800245        3.9397064997       17.6667086635
  C         9.9070986439        6.7474723484       17.1382606350
  H         0.9577006158        4.5709589852       27.8499669340
  H         0.6888411106        6.2967565569       27.5968120018
  C         1.9612741784        5.9025171430       29.2505789373
  C         5.1695026419       -0.3912777417       32.5078537123
  H         6.6717301388        3.7302951679       18.6979623108
  H         6.1323428736        3.4501961809       20.3990537068
  C         5.1907117988        2.0670204988       19.0283730942
  H        10.8659975634        2.9943985773       22.3111060791
  H        11.4032990555        3.6292059316       20.7576513238
  C        12.4388065080        1.9069021970       21.2178150819
  C        10.1207511440        8.1450723436       17.0010188991
  C        10.2407945037        5.9457898802       15.8782348650
  H         1.8779043839        6.9385460838       29.4779865607
  H         1.2360250868        5.4253932335       29.9439496854
  C         3.4072335091        5.4634203594       29.6264010051
  H         5.0607582913       -1.4665659871       32.3725950721
  C         4.8720479316       -0.0058654427       33.8272612543
  H         4.6317747094        1.9454090195       20.0093693252
  H         5.6023564972        1.1474691569       18.6915307788
  C         4.2994339595        2.8452726985       18.0191239758
  H        12.4386457270        1.0691637688       21.8773953689
  H        12.6946230543        1.5880241717       20.1920943373
  C        13.5402324942        2.7405197981       21.7694744999
  N         9.8355372197        9.0747888107       18.0162929275
  C        10.5529628688        8.6967312227       15.8081591306
  C        10.7311780386        6.5240912148       14.7272549330
  H        10.1407277756        4.9299452016       15.9318801838
  H         3.6518675361        4.4302267743       29.2901931611
  H         4.1078106915        6.2277218853       29.3850115252
  H         3.4406354302        5.3437523522       30.6886663154
  S         4.7444377708        1.5855613935       34.4017205042
  C         4.6459067260       -1.0801139170       34.8254122700
  H         4.0456474463        3.7964680112       18.5055808721
  H         5.0026284425        3.1618414104       17.2114555880
  C         3.0435019230        2.0790722250       17.4955386935
  H        13.2060116906        3.1318144891       22.7580719767
  H        13.6584709416        3.6467340232       21.1604147537
  C        14.8564779611        1.9808821396       21.8480477370
  S        10.2507458967       10.5503039562       17.4225596664
  N        10.7678875061       10.1084761077       15.9306823065
  C        10.8770080820        8.0176802435       14.6410934833
  H        10.9707195212        5.9320911638       13.8812138132
  C         4.5012468327        0.8142199137       35.9925735388
  N         4.4839249484       -0.5451730967       36.0530090300
  O         4.6961295157       -2.2696531997       34.5452236339
  H         2.6108608015        2.8511743719       16.8393983199
  H         2.3631318556        1.9003581052       18.2488400755
  C         3.3163854996        0.8061301025       16.7304274093
  H        14.7209050955        1.1302340162       22.4160476706
  H        15.1337710708        1.6670629965       20.8744211585
  C        15.9032459530        2.7989943747       22.6379263570
  C        11.3578035044        8.7931750007       13.6084090802
  S         4.2524508777        1.7266891110       37.5856110784
  C         4.5080681453       -1.3161244826       37.3079567534
  H         2.5669536648        0.8166071235       15.9287317932
  H         4.2082467501        0.9006817472       16.1891795132
  C         3.3297477535       -0.4567935552       17.6187489617
  H        15.9660719490        2.4213394699       23.6561852052
  H        15.7091946778        3.8254749426       22.6996922388
  C        17.2927558156        2.7447080341       22.0395476408
  H        11.5138070835        9.8839501379       13.7080501538
  C        11.9850267383        8.4295657119       12.3770512560
  H         3.9804001552       -0.7807520606       38.0731281794
  H         4.0121742888       -2.2392044549       37.2114408986
  C         5.9741550007       -1.4958619909       37.7109197731
  H         3.5641170897       -0.2087794627       18.7008491659
  H         4.1191122867       -1.0963457913       17.3451183932
  C         1.9698432933       -1.1282774569       17.4289435559
  H        17.1520691889        2.2403332787       21.0640034565
  H        17.8066244382        3.7517595309       22.0824621785
  C        18.2610698311        1.8193385797       22.7469109170
  S        12.5805703064        6.9334013674       11.8245102582
  C        12.0579977770        9.5486934853       11.4058884583
  H         6.6747036184       -1.2639075830       36.9471877004
  H         6.2604701134       -0.8746786450       38.5901320688
  H         6.2070541174       -2.5294927022       37.9512434807
  H         1.0571807190       -0.6168615388       17.7349376132
  H         1.9660765430       -2.0447051285       17.9840222454
  H         1.8407381626       -1.4267132419       16.3756727517
  H        18.2415617579        0.8238693366       22.3371179536
  H        18.0762123897        1.6464775835       23.8060359307
  H        19.2299675502        2.3719106081       22.6156240379
  C        13.0045314913        7.7597266970       10.3176079698
  N        12.6243180283        9.0541567986       10.3122320861
  O        11.5769582329       10.7003327461       11.5883248887
  S        13.7796684763        7.1948695418        8.8724902907
  C        12.7767774614        9.8178940556        9.0319258551
  H        12.5581228511       10.7774600819        9.2586977739
  H        13.7782872432        9.8153364790        8.5225174071
  C        11.6234978128        9.5825873907        8.0907611489
  H        11.3074285068        8.5620872411        7.9960824025
  H        10.7848678352       10.2972235918        8.2515197332
  H        11.9288174963        9.9084794868        7.1077591254
  H         2.6237249873        3.5315052274       12.8491477755
  C         3.1292121820        2.5647955127       12.5391033783
  H         2.7969908818        1.7968176790       13.1467739535
  C         2.6999065217        2.2683008908       11.0973915849
  C         4.6320258988        2.6308437890       12.8603983728
  C         3.5647674611        2.8486881461        9.9894903819
  H         1.7129929960        2.6989375010       10.9215389783
  H         2.6378073022        1.2197735001       10.8329366860
  H         4.7827288377        2.5433427867       13.9385433158
  H         5.2414454029        3.4866111809       12.5002169483
  H         5.1305504134        1.7892582930       12.4810526395
  C         4.4865794786        1.7612755407        9.3286285388
  H         2.9798199497        3.2068228510        9.1381270015
  H         4.0468319345        3.7029364842       10.3250202858
  C         5.4456119612        2.4006102671        8.2385908441
  H         3.8891123592        1.0080450108        8.9175046179
  H         5.0601096258        1.3767907745       10.1008378151
  C         6.7141286849        3.0757891281        8.7638898160
  H         4.8631169901        3.1326419428        7.6826217481
  H         5.6806404042        1.6509926011        7.4825353198
  C         7.9532276070        2.2148366340        8.9869275828
  H         6.9788175765        3.7483982521        8.0416624681
  H         6.4352049864        3.7200322524        9.6154591129
  C         9.2405718670        3.0449950347        9.1940701330
  H         8.0913344231        1.6636563244        8.0436546005
  H         7.6547904134        1.5351099803        9.7938572170
  C         9.0801589445        4.4284768814        9.8268982433
  C         9.7707324506        3.7425148762        7.9790272487
  C        10.3383047254        2.3065695196        9.9542602950
  C         9.3592410168        5.5149075423        9.0532117286
  C         8.5078773094        4.8746877159       11.0311805221
  C         9.8262407966        5.0765865289        7.8317403488
  C        10.1264727195        3.0570422121        6.8405761394
  H         9.9996671012        2.1576009923       11.0319173972
  H        10.5989611590        1.3686834068        9.5983947444
  C        11.6602410785        3.0387713499       10.1190338245
  S         9.1709421058        7.0470344269        9.7596337511
  C         8.4737667254        6.2533360535       11.1727454940
  H         8.2569522964        4.1574533826       11.7691433039
  C        10.2090358323        5.5715434110        6.6198489818
  H         9.9388360923        1.9414645645        7.0184374270
  C        10.6184296912        3.5458341369        5.6759189950
  H        11.4008870256        4.0011911202       10.4974539070
  H        12.1669556532        3.3008612488        9.2292941637
  C        12.5781695647        2.3869561810       11.0824104601
  C         8.0250402399        6.9584474804       12.4579128081
  C        10.6893835969        4.8588762054        5.5047287679
  H        10.2684437294        6.6496310728        6.4929358286
  C        10.9676277353        3.0141635775        4.5007700675
  H        13.5281357821        2.8621346694       11.1433141926
  H        12.8533231268        1.4024203249       10.6830610938
  C        11.9966298612        2.2259703143       12.4808979352
  C         7.9598210744        8.3415210717       12.6562466562
  C         7.4814033223        6.1352958545       13.5778856026
  C        11.1976744286        5.4300222450        4.2348055515
  C        11.3035844523        4.0515161116        3.5895584140
  S        11.0721860739        1.3814863175        3.8838101606
  H        11.2342799939        3.0092071321       12.4277248603
  H        11.5437821293        1.2388093409       12.5945325473
  C        12.9929562875        2.4152298064       13.5771118221
  N         8.3216215982        9.3301805808       11.6922424420
  C         7.6503485978        8.9619532274       13.8652532682
  C         7.1262369424        6.7148599848       14.7805351360
  H         7.2783214019        5.1164300252       13.4634821314
  C        12.5228812059        6.2568332724        4.4153026433
  C        10.1174134041        6.2515928956        3.4720493643
  C        11.7625580300        3.4862072673        2.3815069137
  C        11.5386501092        2.1507399555        2.3987045248
  H        13.3270050653        3.4179481923       13.4598746958
  H        13.7840122742        1.7184713315       13.4474076128
  C        12.4593706240        2.1753861285       14.9769044331
  S         8.4206757700       10.7800162610       12.3779104743
  N         7.8877600389       10.3884412781       13.8199979814
  C         7.1809326502        8.2025883330       14.9606979150
  H         6.7622696247        6.0783164336       15.6173388157
  H        12.3035944603        7.1868826070        4.9870467437
  H        12.8667880208        6.6557910280        3.4294195296
  C        13.6632361295        5.4141295254        5.0718818425
  H         9.9358744036        6.9883344795        4.1755780209
  H        10.4758044660        6.9327153134        2.6552837828
  C         8.8453069083        5.5207779240        2.9095097591
  H        11.9819714097        4.1741803527        1.6103268837
  C        11.7749491884        1.3159541997        1.1901774270
  H        11.7354049610        2.9319413290       15.2083623417
  H        12.1206544575        1.1934756131       15.0744148763
  C        13.6574475472        2.2397082973       15.8533508559
  C         7.0271084816        8.9414914669       16.2115381735
  H        13.4285520032        5.3815052675        6.1457217755
  H        13.8563113874        4.4495459894        4.7064936502
  C        14.9240070429        6.2348815940        4.9628334466
  H         8.2785677498        5.1469683037        3.7376418096
  H         9.0346806373        4.6055161510        2.3158197921
  C         7.7861650245        6.4794729630        2.3230446830
  C        11.7117719812       -0.0905264109        1.1371211536
  C        12.2150073939        1.9496341506       -0.0328569219
  H        14.4254203795        2.8440303502       15.4279572578
  H        14.0531087281        1.2712469409       16.0623961435
  C        13.2663183270        2.7798880681       17.2452983335
  H         7.4896839500        9.8776082170       16.2100546250
  C         6.6173361911        8.5258197662       17.4908902022
  H        14.9715326031        7.1245699568        5.5416747772
  H        15.2230612256        6.5206536229        3.9370493946
  C        16.0668098505        5.3449996893        5.5204139892
  H         7.4768183085        7.3235389990        2.9879080828
  H         8.2014793012        6.9398587728        1.4530950022
  C         6.5479410065        5.8002014957        1.7539173172
  N        11.2421613277       -0.9205982829        2.1687369102
  C        12.1274943711       -0.8217521153       -0.0000662132
  C        12.4974095076        1.2294900448       -1.1704311529
  H        12.2133014955        3.0281409218       -0.1361931560
  H        12.1544779940        2.8453490025       17.3077748272
  H        13.6416434451        3.7963226964       17.4480536985
  H        13.6158915584        2.1560380445       18.1427998311
  S         6.2679873024        6.9414543413       17.9783785004
  C         6.4735486056        9.5518454935       18.5430635832
  H        15.7435796786        4.4031786576        5.9962526167
  H        16.6339190353        5.0796584949        4.6196652963
  C        16.9940724576        6.1791178796        6.4208109319
  H         6.0321462310        5.1253719115        2.5003103914
  H         6.9334838105        5.1368688811        0.9749325104
  C         5.6042563456        6.7531011700        1.0508045735
  S        11.5001534831       -2.4790614628        1.7577361306
  N        12.0807668860       -2.2094455072        0.2923761319
  C        12.5524852077       -0.2608308691       -1.2413453870
  H        12.7562397489        1.7437203562       -2.0480821057
  C         6.0391828319        7.6160172544       19.5818171667
  N         6.0035421423        8.9769762994       19.6222238040
  O         6.5567578933       10.7960652773       18.3162434407
  H        17.4634408020        6.9913366606        5.9762342604
  H        16.3454601783        6.6258984962        7.1449727462
  C        17.9109867222        5.3119525355        7.2662591133
  H         6.1336132105        7.5671015855        0.5452723646
  H         5.1245533736        6.1095761255        0.3094833285
  C         4.5662951867        7.2926395253        2.0613928184
  C        12.8413385853       -1.1038289527       -2.3712068063
  S         5.5918702944        6.6449151019       21.0062480710
  C         5.9144228434        9.7134136588       20.9170233749
  H        17.3858650368        4.9264715389        8.0666061038
  H        18.1483621181        4.4142940704        6.7022004580
  C        19.2002261435        6.0351562594        7.8542270974
  H         5.0676031015        7.6050329956        2.9252341953
  H         3.9997182652        6.3927412749        2.4181043984
  C         3.6841504663        8.3578431734        1.4193219272
  H        12.6932285499       -2.1663594274       -2.1233681813
  C        13.3263843831       -0.7734931774       -3.5839060299
  H         5.1067128037        9.2803550440       21.5676558603
  H         5.5937479661       10.7000778480       20.7525582824
  C         7.2160677066        9.7577720634       21.7377541405
  H        19.6289164717        5.4270058118        8.6525909752
  H        19.0822845409        7.0430182346        8.1779879984
  C        20.2214044457        6.0623796207        6.6592192383
  H         3.5614121767        8.0622138927        0.3627055557
  H         2.7005044570        8.3205370148        1.8311028210
  C         4.2779487610        9.7270472031        1.5769302815
  S        13.8575033170        0.8037424655       -4.1699326087
  C        13.4103955548       -1.8925789800       -4.5536129462
  H         7.7782006697       10.7388259471       21.8652806813
  H         7.9678743083        9.0139044412       21.3784991256
  H         6.8942687512        9.5609871152       22.7494028182
  H        19.9081969887        6.8503568171        6.0509008327
  H        21.2209567335        6.3600956201        7.0743437546
  H        20.4425748184        5.1257303915        6.1475094161
  H         3.6044073186       10.2203935579        2.2741163557
  H         5.3110569053        9.6288924907        1.9573430084
  H         4.1620347262       10.4010366398        0.7885917571
  C        14.1851151591       -0.0591842960       -5.6968807828
  N        13.8646502203       -1.3846667784       -5.7291774414
  O        13.0417758735       -3.0061438114       -4.4070394510
  S        14.7818867611        0.6401971159       -7.2208523755
  C        13.9208995268       -2.2737632959       -6.8855210629
  H        14.0249246298       -3.3255942338       -6.5539963036
  H        14.8030058724       -2.0352210154       -7.4929049510
  C        12.7131503139       -2.0953905120       -7.8326719908
  H        12.8297105401       -1.3348095103       -8.6151050382
  H        11.7768904887       -1.8590803100       -7.2485320892
  H        12.4128232314       -2.9896241230       -8.3363873361
