352
 i =    35200, time =    17600.000, E =        97.1776824336
  H        10.1294029434        4.6768291652       31.6723518436
  C        10.5544283786        5.5318590446       32.1541526704
  H         9.6591335782        5.9412239375       32.5783928439
  C        11.0584293761        6.5126688553       31.0551659187
  C        11.5084706860        5.1426746434       33.2102719239
  C        11.4913749159        5.7692747496       29.7905762453
  H        10.2629739695        7.1401836551       30.7590917789
  H        11.8796704783        7.0778097718       31.4222312615
  H        11.2320003360        4.3305651470       33.9140858275
  H        12.3655112565        4.7717781748       32.6808161451
  H        11.8224912134        6.0589798852       33.7029690987
  C        10.2486229961        5.1636700702       28.9849530897
  H        12.2639924135        5.1105739920       29.9511794070
  H        11.8312757732        6.5319080845       29.0896689729
  C        10.5988085000        5.2446202847       27.5061749764
  H        10.0534087027        4.1044511279       29.3439361684
  H         9.2668600723        5.6559057007       29.2342766595
  C         9.5503756211        4.4093364792       26.6221619647
  H        11.5742478716        4.7117525071       27.3891528024
  H        10.6939713861        6.3147229739       27.2199827924
  C         8.4295857655        5.3754157804       26.3350613099
  H         9.9932283636        4.1067030190       25.6788288041
  H         9.1325836034        3.5962771123       27.2232490406
  C         7.2414877158        4.6458607276       25.7055515100
  H         8.0547955278        5.7990011430       27.2490184987
  H         8.8928562786        6.1895619108       25.7124982164
  C         6.8573070268        3.3546151119       26.3436010048
  C         7.6647751634        4.0281197186       24.4864485745
  C         6.0752265895        5.5799506552       25.5825746453
  C         7.1156668619        2.2406717851       25.5564567615
  C         6.2473956379        2.9668205077       27.5626708969
  C         7.6272278243        2.6380788251       24.3477469977
  C         8.2542710206        4.6583822603       23.4089448461
  H         6.3240027775        6.3854537055       24.8385827179
  H         6.0258142086        6.0095894951       26.5972219184
  C         4.7321952325        4.8404601042       25.1844489511
  S         6.6827729993        0.7170440789       26.2929246612
  C         5.9824445470        1.6242125398       27.6388113289
  H         6.2083811346        3.6745189630       28.3850384180
  C         8.0602848016        2.0724401399       23.1677729690
  H         8.2960442972        5.7177506345       23.3522820883
  C         8.6584766615        4.0969292927       22.2436371072
  H         4.8819751249        4.5719408348       24.1404751818
  H         4.4428955545        3.9616180886       25.7989053880
  C         3.5360281279        5.8142972799       25.2157480686
  C         5.5197071868        0.9507397860       28.8856133623
  C         8.5258176145        2.7708095459       22.0384416180
  H         8.0486595340        0.9715788427       23.0719348492
  C         9.0786873815        4.5108306819       20.9976406271
  H         2.7433412495        5.4535391616       24.5694198898
  H         3.8388113983        6.8404442694       24.7599220650
  C         2.9379759941        5.9836473247       26.6143440941
  C         5.6383605154       -0.4914287389       29.1447094029
  C         5.0380689429        1.7247597946       30.0201205098
  C         8.9209787355        2.1037885878       20.7368216906
  C         9.2389121099        3.4726231312       20.1653157717
  S         9.3991815650        6.0236070785       20.2746066534
  H         2.1812919820        6.8783938250       26.7529369421
  H         3.8138496815        6.1666038785       27.1896483992
  C         2.2086480645        4.7866217168       27.1133234780
  N         5.9847220207       -1.4219237740       28.1971418249
  C         5.4737934948       -1.0411908115       30.4060205214
  C         4.7291395769        1.1156277124       31.2047862243
  H         4.9165971574        2.7803961814       29.9017321394
  C         7.7793584030        1.5176547245       19.8592705214
  C        10.1239603399        1.1731749458       20.9109137896
  C         9.6498064222        3.8897020177       18.8439957174
  C         9.8175036801        5.1955092895       18.8285197851
  H         1.1894579779        4.6560936912       26.5701526241
  H         2.8470533128        3.8736468435       27.1214144205
  C         1.7270179697        4.9435237051       28.4847386908
  S         6.2317624362       -2.8649626908       28.8883249027
  N         5.6751808863       -2.4420780938       30.3595977902
  C         5.0477586869       -0.2879694056       31.5088084612
  H         4.3079047148        1.7395451789       32.0019947190
  H         7.5699196633        0.6359143496       20.4682875054
  H         8.0927792260        1.0499822076       18.9268671128
  C         6.5639728181        2.4326418726       19.5623250354
  H        10.3897523192        0.8030346859       19.9473486472
  H        10.0379810028        0.5695035643       21.7450006333
  C        11.4288432401        1.9551413060       21.1877431292
  H         9.7021055281        3.2755832662       18.0128590809
  C        10.1209674528        6.0114768710       17.5943170911
  H         1.2038850282        4.0342889865       28.7844471752
  H         0.9217186536        5.6597979904       28.5876143483
  C         2.8104802509        5.1613264267       29.5080574528
  C         4.8894318918       -0.9571232603       32.7994506534
  H         6.8067773638        3.4960870818       19.3298652500
  H         5.8949955520        2.4304637993       20.4473125177
  C         5.7612739747        1.7671384330       18.4777167790
  H        11.2841037801        2.7911865808       21.9108217074
  H        11.7734460583        2.3435841473       20.2201957826
  C        12.5411867687        1.0499521409       21.5836118804
  C        10.0609134299        7.4227603009       17.4443696046
  C        10.4862093541        5.2346878804       16.3617263271
  H         3.6784061351        4.5145880728       29.4164874624
  H         3.1407356296        6.2257381145       29.3269270040
  C         2.2944836348        5.1391823663       30.9663988486
  H         5.1513705880       -1.9674660184       32.8644023955
  C         4.5646464910       -0.4987946357       34.0425094380
  H         5.7353403120        0.7045389038       18.7728681871
  H         6.2517097700        1.9467314856       17.5539674033
  C         4.2632936895        2.2627376042       18.4790810310
  H        12.2269964040        0.2989191255       22.3130181074
  H        12.7978510586        0.5158275336       20.6333624741
  C        13.7423434740        1.8771592975       21.9692485101
  N         9.8430011592        8.2986661799       18.4976525976
  C        10.3459828327        8.0239180082       16.2184704236
  C        10.5606483121        5.8017171279       15.1066912112
  H        10.4966370491        4.1165400505       16.3736674062
  H         1.9008140223        6.1488181431       31.3271249896
  H         1.5490541644        4.3958913082       31.0161087558
  H         3.0441561114        4.8558487549       31.7461038896
  S         4.2435545869        1.1318887742       34.5175143588
  C         4.6994327474       -1.4732496821       35.1405585535
  H         4.1094418723        3.1821186159       18.9602038012
  H         3.9807109883        2.5913420905       17.5369608528
  C         3.3711217926        1.1680846238       18.9416865730
  H        13.4152613570        2.7744160024       22.3745150216
  H        14.3646412424        2.0921928037       21.0880017922
  C        14.6233474764        1.1337876778       23.0068322059
  S        10.1004047496        9.7199723780       17.8474421896
  N        10.4801933469        9.3559679769       16.2861085732
  C        10.6197766747        7.3024808718       15.0034906985
  H        10.9196725137        5.2128614881       14.2542604178
  C         4.0906199737        0.4729110633       36.1169045373
  N         4.3861947277       -0.7927547796       36.2910715959
  O         4.9426238497       -2.6369335746       35.0092618443
  H         2.5295660466        1.7895041363       19.1629259253
  H         3.7109446005        0.6315567764       19.8372843541
  C         3.0737002001        0.1445722537       17.8665045425
  H        14.1876700783        0.4622484261       23.7162570702
  H        15.2197434829        0.4207520772       22.5057673965
  C        15.5802028299        2.1856997414       23.6257009810
  C        10.7743464686        8.0950044031       13.8221697520
  S         4.0224995589        1.5162448771       37.5005168862
  C         4.4873922551       -1.5393142400       37.5441746762
  H         2.6833776057        0.6167667345       17.0421219064
  H         4.0039634437       -0.3038142402       17.5764451435
  C         2.0819255967       -0.8863860308       18.3707390451
  H        15.0987889366        2.7825988459       24.4526665441
  H        15.8757109985        2.8764907231       22.8922258978
  C        16.9414096055        1.6020785683       24.1834557967
  H        10.5009627360        9.1209142529       13.8405236046
  C        11.3140376946        7.8701786900       12.5842334665
  H         3.6357899558       -1.2974777147       38.2449910121
  H         4.4429259086       -2.5986556879       37.1917423065
  C         5.8804276362       -1.4235676213       38.2001927236
  H         1.1658570721       -0.5103112750       18.7633393226
  H         2.5573784169       -1.4096613575       19.2087015689
  C         1.7941715946       -1.9794672461       17.3025847362
  H        17.2627276878        2.4217023903       24.8455651786
  H        16.8165792730        0.6865052617       24.7990274930
  C        18.0313392827        1.5027874195       23.1338615170
  S        11.8575170309        6.3965386453       12.0511709899
  C        11.3438577366        8.9787021459       11.6122893499
  H         6.2376268057       -2.4167248292       38.0812685194
  H         6.5498534053       -0.7078995485       37.7458156865
  H         5.8062051974       -1.1949987520       39.2307132712
  H         1.1851439687       -1.5900409852       16.6288992680
  H         1.4137875840       -2.9454205280       17.6895757268
  H         2.7575507381       -2.1484570764       16.8486035577
  H        19.0081332224        1.4883635290       23.5170678790
  H        18.1727276162        2.3848516546       22.4592158972
  H        17.8804359843        0.6983547833       22.5513710224
  C        12.3872957072        7.2841750242       10.5907418341
  N        12.0147932030        8.5555292870       10.5379580254
  O        10.8677479821       10.1153164271       11.7645287698
  S        13.4106086262        6.6174561074        9.3441107686
  C        12.3102146924        9.5085424786        9.4543462364
  H        12.7853582865       10.4120881609        9.8023183347
  H        13.0616877150        9.1322338416        8.7358721597
  C        11.1018908588        9.7825240087        8.5209182786
  H        11.0534255668       10.8110803464        8.2837740064
  H        11.2519796173        9.2461293750        7.5560765194
  H        10.1959582367        9.3949321774        9.0111042892
  H         2.9036616435        1.9655507328       13.8351666692
  C         3.5689660395        1.9921128464       12.9399985344
  H         3.8781108209        0.9963651430       12.7783932051
  C         2.6858385259        2.3816709030       11.7506319751
  C         4.9820802569        2.7240512878       13.0655957244
  C         3.4724729113        2.4630103194       10.3999336866
  H         2.3151116357        3.4298200487       12.0266745549
  H         1.7721661486        1.7498779092       11.6485160244
  H         5.4329870674        2.5344078282       14.0616017654
  H         4.6893412059        3.7718396175       13.1735311657
  H         5.7655060492        2.4507563473       12.3979755703
  C         4.4090877489        1.2564978913       10.0113937415
  H         2.6893667000        2.5705293215        9.5950461737
  H         4.0641259271        3.4033685388       10.4874585692
  C         5.3450685093        1.4829825432        8.7705123958
  H         3.7984545192        0.3856307997        9.7432184357
  H         5.0303697172        0.9735150132       10.8299100793
  C         6.4755056934        2.4355307865        8.8591986134
  H         4.7629101562        1.8952166421        7.9713804590
  H         5.7293696267        0.5295907968        8.4817028111
  C         7.7163045085        1.6999051103        9.4881152203
  H         6.7089581504        2.8710881473        7.8859454412
  H         6.1650524923        3.1961578056        9.4888482703
  C         9.0144918578        2.5377531630        9.6292616239
  H         7.9011441808        0.8370649052        8.8426935910
  H         7.4419136046        1.2471080073       10.4644778905
  C         8.7472277984        3.9297278888       10.2723855172
  C         9.4048249306        3.2721267376        8.2967090433
  C        10.2521340950        1.8659061240       10.2521551114
  C         8.9893524686        5.0216218948        9.4512670567
  C         8.2868994193        4.2936878230       11.5225481546
  C         9.4139816187        4.6663360527        8.1783616788
  C         9.8255617954        2.6173875846        7.1387784627
  H         9.9141726119        1.4357918232       11.1507362369
  H        10.4993832808        1.0563759894        9.6260264695
  C        11.4748320737        2.7741840814       10.6092325407
  S         8.6130176000        6.4418803008       10.2519488085
  C         8.1317131892        5.6447454427       11.6597757279
  H         8.0427809843        3.4942288644       12.2224387345
  C         9.6920465457        5.2258646379        6.9966231000
  H         9.8375546575        1.5125513598        7.2102000779
  C        10.2690482121        3.2278276139        6.0072141624
  H        11.2156269483        3.8012713092       10.8177639030
  H        12.1158358646        2.9848700567        9.7858608910
  C        12.4605775392        2.1169926344       11.6339422885
  C         7.6976293758        6.3959707573       12.8474297252
  C        10.1553825080        4.5633846142        5.8243869411
  H         9.5255380205        6.3291566848        6.9395469261
  C        10.6431757900        2.8188196820        4.7381809102
  H        13.3773187841        2.7314640575       11.7965903112
  H        12.7916544988        1.1139381496       11.2253068137
  C        11.8731469887        2.0112517324       13.0593977818
  C         7.6334588815        7.7782584109       13.0305146827
  C         7.5436820923        5.6170773960       14.0545457176
  C        10.6152956148        5.2132665536        4.5562098869
  C        10.8148389712        3.9067760642        3.8477521732
  S        11.0012506256        1.3095139805        3.9621806072
  H        11.4708680975        3.0000228213       13.2922116857
  H        11.0555564984        1.2859322434       12.8719934439
  C        12.9085158063        1.6140762204       13.9976822986
  N         7.7285089348        8.7400534242       11.9758306684
  C         7.2929178284        8.3788433904       14.2541615138
  C         7.1614697446        6.1486979874       15.2749495688
  H         7.5557150555        4.5334679073       13.9420456569
  C        11.9233354538        6.0721953528        4.6616792133
  C         9.4628487481        6.1569118816        3.9733094025
  C        11.2289043257        3.5233268400        2.5371304339
  C        11.3758103360        2.1439490160        2.5035580486
  H        13.3691869649        2.5037162878       14.2481433534
  H        13.6671186090        1.0173434562       13.5847180796
  C        12.4808323317        0.7408644752       15.1957745048
  S         7.6355288839       10.2434111264       12.6388770549
  N         7.3130056715        9.8216895512       14.1733962505
  C         7.0404308788        7.6456987461       15.4357087792
  H         6.9878043381        5.4721390239       16.0865256096
  H        11.6687804639        7.1306069183        4.9006486737
  H        12.3724130761        6.2479161142        3.7071674013
  C        12.9050793474        5.4444388593        5.6560073644
  H         9.2071412237        6.9490336823        4.7891032106
  H         9.8885673375        6.7458665340        3.1604512304
  C         8.1776888523        5.3017621567        3.5432055357
  H        11.4626398319        4.2067114770        1.7516432498
  C        11.9307761593        1.3548084141        1.3083526202
  H        11.7314771532       -0.0164514907       14.8368091965
  H        13.4542862364        0.1503779475       15.4711020785
  C        11.8921685898        1.3535618589       16.5156228479
  C         6.7782639003        8.3478350619       16.6610802723
  H        12.3859165380        5.2744970209        6.6360111727
  H        13.0895425764        4.4355071228        5.3533834616
  C        14.0717208405        6.3781492313        5.7151831397
  H         7.8633244708        4.5543495873        4.2393656510
  H         8.4442055923        4.8681959360        2.6214237167
  C         7.0128741800        6.1926935225        3.1377499781
  C        11.9075139703       -0.0435743167        1.1258532468
  C        12.3208266601        2.1751456560        0.1406058962
  H        11.2067693755        0.7117773392       17.0130347667
  H        11.2827384490        2.2066792428       16.2312479629
  C        12.9552721219        1.9907951974       17.3834106124
  H         7.0078068707        9.3975051671       16.5506798350
  C         6.5321614059        7.9385975178       17.9301607499
  H        13.7619015332        7.2291757018        6.3468523426
  H        14.3981635181        6.7650505319        4.7741136412
  C        15.2400395629        5.7928819285        6.3815666095
  H         6.8035548253        6.9189784321        3.9911271639
  H         7.2834075948        6.8696525952        2.2957014304
  C         5.7354865574        5.3971270718        2.7922927602
  N        11.6525515636       -1.0018538725        2.0998781394
  C        12.2499650977       -0.6459465204       -0.1010058643
  C        12.6720024408        1.5474326808       -1.0860529396
  H        12.4339745234        3.2416435041        0.1465903722
  H        13.2800157904        1.2191495450       18.0761860796
  H        12.4952795655        2.8825322349       17.8801933850
  H        13.8080803593        2.4273718865       16.8674993791
  S         6.1425757209        6.3228214936       18.4009734503
  C         6.5191376016        8.9156501624       19.0485000171
  H        15.5271962455        6.4429890560        7.1314197818
  H        14.8963830249        4.9732304613        7.0221360883
  C        16.4072181206        5.3402633171        5.5088196798
  H         5.2269630626        5.1283121642        3.7095967563
  H         6.1239617421        4.4887797512        2.2973290973
  C         4.7809228372        6.1174525603        1.8760272372
  S        11.6617551166       -2.4138496076        1.3611389264
  N        11.9222376274       -1.9450205199       -0.1274794229
  C        12.7044647868        0.0987920513       -1.2446213261
  H        13.0313245467        2.1850349556       -1.8733257158
  C         6.1116030269        6.9269232700       20.0979517228
  N         6.2163179614        8.2703698123       20.2176726420
  O         6.7397813707       10.1555385035       18.9257023902
  H        15.9520375695        4.8824537126        4.6573420730
  H        16.9907338987        6.2011174075        5.1664039304
  C        17.3025730480        4.3867934603        6.3152666169
  H         5.2656013663        6.1649232330        0.8808649727
  H         3.9552021414        5.4141029037        1.7522548424
  C         4.2095082997        7.4729746579        2.4202059305
  C        12.9352599406       -0.5412007879       -2.5356615878
  S         5.9212253100        5.9314705750       21.5423825875
  C         6.2978239919        8.9106665777       21.5008276642
  H        16.7532370334        3.5707523337        6.6635517211
  H        18.1458851375        4.0229707357        5.6935569634
  C        17.9281862045        4.9723856802        7.6775203701
  H         4.6853546029        7.6932820271        3.3865182900
  H         3.1187754682        7.4162267135        2.5473037918
  C         4.5293029193        8.6329828362        1.5207694002
  H        12.8309391395       -1.6232989574       -2.4455787249
  C        13.3786590422       -0.1324016817       -3.7732820380
  H         5.4688712293        8.5960326234       22.1183042558
  H         5.9250058422        9.8978210281       21.3487544081
  C         7.7407721220        8.8770008266       22.1154843709
  H        17.8408904575        4.1847520308        8.4487058566
  H        17.4376502896        5.8824323209        8.0147626581
  C        19.4125141599        5.2939827417        7.4639806237
  H         4.9633155345        9.4115651927        2.1565848926
  H         5.3382592845        8.2275348141        0.8856187407
  C         3.3816299211        9.3368981864        0.7892741565
  S        13.7808579834        1.4463054707       -4.3152658114
  C        13.6153500004       -1.1799091169       -4.6785321259
  H         7.7576410427        8.1819959729       22.9775436575
  H         8.0509530329        9.8707767267       22.3776702068
  H         8.4733703593        8.4756501509       21.3588389457
  H        19.8843469292        4.4243163015        6.9702759844
  H        19.6173565033        6.1255440891        6.7583364719
  H        19.9510603594        5.3380487968        8.3381992571
  H         3.6915803120       10.1790517087        0.1622730858
  H         2.8296864472        8.6144717130        0.2406611976
  H         2.6153206271        9.6404154756        1.5357102833
  C        14.3096442925        0.6722453021       -5.7747948363
  N        14.2048959057       -0.7119273280       -5.7706592627
  O        13.1433501266       -2.2847642091       -4.5159376828
  S        15.0270043929        1.5275474671       -7.2786475949
  C        14.5083287725       -1.6926972349       -6.8641840947
  H        14.8664740030       -2.6722020399       -6.4289830116
  H        15.3473411738       -1.3585379708       -7.5188763250
  C        13.2738958906       -2.0009137875       -7.7309939043
  H        12.3553803323       -1.4615431842       -7.3630531599
  H        12.9139234779       -3.0173751726       -7.7937424556
  H        13.4221579205       -1.7748965523       -8.8057286707
