352
 i =    64300, time =    32150.000, E =        99.5479589384
  H        11.9246552873        5.3102449990       32.5585216447
  C        10.9615216435        5.8836601677       32.7031707524
  H        10.2767526651        5.1901014164       33.0800887436
  C        10.2472580651        6.4329421538       31.4302277778
  C        11.0331218761        6.9375745327       33.7820333790
  C        10.4820700121        5.6514475245       30.1152638434
  H         9.2372023778        6.6542508284       31.6539630102
  H        10.6586628631        7.4148148112       31.3847889812
  H        11.4427286975        7.9386540744       33.5693551182
  H         9.9933135609        7.1258856766       34.0733991099
  H        11.6154840821        6.3974077941       34.5730282220
  C        10.4491146146        6.5591539607       28.8561702447
  H         9.6734732038        4.8771444907       29.9194125864
  H        11.3830805395        5.1173120069       30.1089441502
  C        10.7716352188        5.9316655984       27.4840861937
  H         9.5176330990        7.1425202938       28.8773378564
  H        11.1357901631        7.3619177343       29.0365909669
  C         9.5302519305        5.1761447464       26.9489920001
  H        11.5783885636        5.2423062737       27.6885899767
  H        11.1062400599        6.7501450239       26.7423736946
  C         8.3796840205        6.1377764518       26.3598603675
  H         9.8354594248        4.5164436015       26.1975765241
  H         9.0199251299        4.6674005696       27.7240598393
  C         7.2339601693        5.3785963480       25.5213139057
  H         7.9019220342        6.5199539136       27.2119421778
  H         8.8178269721        6.8334376310       25.6339407294
  C         6.9502456191        4.0482546640       26.1450859802
  C         7.6590845232        4.6788034382       24.1617625611
  C         5.9564188473        6.2040800905       25.3488943418
  C         7.1931894462        2.9590284825       25.3207268292
  C         6.5306195320        3.6599614305       27.4651968661
  C         7.5810349698        3.3456930294       24.0994791622
  C         8.2319526100        5.3507422945       23.0675645232
  H         6.3187816169        7.1883585237       24.9538185446
  H         5.5312049969        6.5506920266       26.3210685749
  C         4.8324695635        5.5362185825       24.5350425411
  S         6.7913541900        1.4284592513       26.0407009745
  C         6.3710586049        2.2815184877       27.5264388413
  H         6.3302205243        4.4430826257       28.2073331856
  C         8.0247025394        2.6628040023       22.9913811577
  H         8.3594271473        6.3923498772       23.0760263572
  C         8.5320170669        4.6767794719       21.9444271472
  H         5.2136139724        5.3670755084       23.5544113607
  H         4.6940033139        4.4962182302       24.7949906984
  C         3.5664352488        6.3325643650       24.3719199770
  C         5.8900700237        1.5279464273       28.7234369642
  C         8.4210642170        3.3239219001       21.8197332710
  H         8.0621993955        1.5612172676       23.0177481979
  C         9.0366681369        5.0724073233       20.7544876771
  H         3.0592913255        6.0396946731       23.5138205625
  H         3.9166347109        7.3263925261       24.0954446329
  C         2.7513178546        6.4579755008       25.6192947931
  C         5.8862872940        0.1226558252       28.9815022502
  C         5.3840152690        2.3584916773       29.8440210030
  C         8.8791340175        2.6572295709       20.5814042217
  C         9.1363544516        4.0408206206       19.9310450952
  S         9.4919410526        6.5344986048       20.0489544142
  H         1.9365143241        7.1397847532       25.2658583504
  H         3.1670329112        7.1619145198       26.4014914886
  C         2.2851539630        5.2304807478       26.3954961533
  N         6.3698132336       -0.7610804005       28.0405033185
  C         5.5823587981       -0.4851129513       30.2033633182
  C         4.9644581829        1.7816721995       31.0495027166
  H         5.2839262100        3.4506059436       29.6942619106
  C         7.7985357402        1.8865472732       19.7759186188
  C        10.2311460172        1.9323369906       20.7324476961
  C         9.4982428045        4.3956326526       18.6397941340
  C         9.6566601464        5.7370442498       18.5890002687
  H         1.7408290386        4.7139680352       25.6464018336
  H         2.9927430585        4.4840545595       26.6420858857
  C         1.3923260199        5.5533595737       27.6132229189
  S         6.4236070949       -2.2425882882       28.7639774138
  N         5.9449572479       -1.8296518971       30.3201795114
  C         5.1467119045        0.3141666238       31.2988554610
  H         4.5303939085        2.3927048942       31.7881718007
  H         7.4748321619        1.0604098342       20.3367283820
  H         8.2201323812        1.3060040237       18.9382144964
  C         6.5644527232        2.6596798019       19.2819382252
  H        10.5122993562        1.4765432134       19.7713495325
  H        10.0548218351        1.1857732671       21.4686906437
  C        11.3814425417        2.8404263943       21.2430873294
  H         9.6757620184        3.6265057431       17.8934588824
  C         9.8786371864        6.5180582568       17.2714962969
  H         0.4912912979        4.8897980931       27.5594250807
  H         0.9824934339        6.5708844411       27.5465628376
  C         2.2091219076        5.4514938421       28.9333742474
  C         4.8695796617       -0.2779086459       32.5453418929
  H         6.8344285316        3.4035717580       18.5564285701
  H         6.1631455604        3.1075634867       20.1899157469
  C         5.5759999337        1.7567970807       18.5907733947
  H        11.1911598711        3.3319413431       22.1968871073
  H        11.4786378424        3.6349136502       20.5200137100
  C        12.5866636355        1.9188886773       21.2218877229
  C         9.9010319803        7.8987158376       17.1072843157
  C         9.9454313722        5.8259720060       15.9059582040
  H         2.8703748633        4.5870225221       28.7895173633
  H         2.6856016241        6.4235866675       28.9612862334
  C         1.2494501324        5.4073290830       30.1664537481
  H         4.6661075717       -1.3073551187       32.3588162583
  C         4.6847531637        0.2553428946       33.7999581470
  H         5.2942615198        1.0522711848       19.3476420661
  H         6.0501511821        1.0616302940       17.8465690142
  C         4.3447695508        2.4468605831       18.0258934541
  H        12.3958256996        1.0872965830       21.8305467133
  H        12.7134342066        1.4361007714       20.2666649942
  C        13.8994640630        2.5747077456       21.5844402986
  N         9.7632206717        8.7831412892       18.1631003646
  C        10.0925630156        8.5465194786       15.9234883181
  C        10.0874193925        6.5091348861       14.6872255801
  H         9.7743312868        4.7646938688       15.8751991032
  H         0.7389233462        4.4970424244       30.0036180724
  H         1.7552941909        5.3801155485       31.1216752401
  H         0.6092720521        6.3005142506       30.1523718861
  S         4.5874226268        1.8804379906       34.3586962982
  C         4.4680987065       -0.7736045979       34.8669209315
  H         4.2028318100        3.3704471335       18.5089519574
  H         4.5978350065        2.7240195561       17.0082913293
  C         3.1484013602        1.4655076461       18.2165502960
  H        14.0952280328        3.2400085521       20.7255156936
  H        14.6943832090        1.8574403834       21.6107718128
  C        14.0396120191        3.3235556112       22.8925671654
  S         9.9540915374       10.3169676164       17.6381326776
  N        10.0332764544        9.9689434165       16.0822381522
  C        10.3006315682        7.9538175869       14.6593200140
  H        10.2056575778        5.9329038078       13.8090007003
  C         4.2988947362        1.1277764321       35.9860048251
  N         4.0922851404       -0.2104895227       36.0053609924
  O         4.5638615804       -2.0037346210       34.6327105782
  H         2.3000039645        2.1102307065       17.8884342260
  H         2.8934848487        1.1967356480       19.2159991275
  C         3.1761279870        0.2112808608       17.3240488142
  H        13.2400949471        3.9464149126       23.0949212455
  H        13.9317821913        2.6045205076       23.6891142942
  C        15.3413869078        4.1034229942       22.9777305617
  C        10.6583416283        8.7401962287       13.5698241843
  S         3.7272384972        1.9196996195       37.4185030559
  C         3.9280000965       -1.0104624202       37.2002270709
  H         2.4897954716        0.4203369589       16.5323631928
  H         4.1019337163        0.1405981458       16.8843241861
  C         2.7961305365       -1.0522531148       18.1308301453
  H        15.4651415540        4.3592682301       24.0607598004
  H        15.1669107388        5.0223761947       22.6035327506
  C        16.6295090279        3.5556530336       22.4469740736
  H        10.6268023300        9.7678836900       13.7091395797
  C        11.1598323397        8.5052738567       12.3016182899
  H         3.2245080099       -0.6345282522       37.9526410671
  H         3.5912331492       -2.0009072547       36.8831343795
  C         5.2743432087       -1.1947631361       37.9601707196
  H         3.3085970167       -0.9819911241       19.1680830033
  H         3.1705438258       -1.9634034743       17.6554769696
  C         1.3559193726       -1.2547561610       18.3050471936
  H        16.4093480925        3.2669139265       21.4155596099
  H        17.3122363456        4.3768271152       22.3429735548
  C        17.2103884350        2.4874080563       23.3198694413
  S        11.7507000141        7.0489364406       11.7345497929
  C        11.3804761791        9.6251662829       11.4364437890
  H         5.1419056342       -1.9851431021       38.7140760485
  H         6.0720849427       -1.4901997139       37.2850642679
  H         5.5114018232       -0.3686405001       38.5458318813
  H         1.1833440310       -2.1425792972       18.9132050660
  H         1.0080552777       -1.5479324971       17.3232982682
  H         0.7075305238       -0.3559189148       18.5477808568
  H        17.3548168977        2.8121055757       24.3979293508
  H        18.1788599748        2.1433907459       22.9740506798
  H        16.6518450743        1.5947063475       23.4591511017
  C        12.0202538003        7.8229710595       10.2332055419
  N        11.8720645636        9.1796445974       10.2332661335
  O        11.2296782031       10.8125516567       11.8247787789
  S        12.6272580942        7.1317666209        8.7714901850
  C        11.8769754295       10.0513579732        9.0753333754
  H        12.0165213970       11.0652006663        9.4109575350
  H        12.7487690336        9.9736611723        8.4005852472
  C        10.5589365297        9.9897940370        8.3471037970
  H        10.4086190528       10.8816670382        7.7444033605
  H        10.6156367532        9.1703716988        7.6623215525
  H         9.6897692869        9.9621629812        9.0490629672
  H         4.6209299915        1.9361915545       12.6275144236
  C         3.8485562113        2.6872130979       12.7993821065
  H         4.4107727321        3.5182118767       13.0079831133
  C         3.0507723846        2.7374098938       11.4980578923
  C         3.0579665686        2.3497547526       13.9467240276
  C         3.8674737354        3.1233874892       10.3378487325
  H         2.2272339236        3.4835951900       11.4944302144
  H         2.5299491450        1.8668517511       11.1878424250
  H         3.5750155886        2.1796513293       14.8692731490
  H         2.2222295305        1.6119695306       13.9114105677
  H         2.4203437389        3.1455727120       14.3346514397
  C         4.5777843269        1.9800857193        9.5223123048
  H         3.1334876537        3.6073528957        9.6865305500
  H         4.6757619314        3.9081831533       10.5593672061
  C         5.3169001636        2.3902775997        8.1661246308
  H         3.7297622943        1.4106919581        9.0771167981
  H         5.1965897748        1.2726500779       10.0629985746
  C         6.4381750595        3.2667404347        8.4652977080
  H         4.6108292802        2.8831631151        7.5274502581
  H         5.6631630997        1.5858483345        7.5192415978
  C         7.6432916167        2.4654119690        8.8716129118
  H         6.6723350233        3.7028007858        7.5483216457
  H         6.1202233862        3.9607166116        9.1871214527
  C         8.9655549120        3.2349647497        9.0197220611
  H         7.8459126983        1.6075004397        8.2025719702
  H         7.4267545190        2.0084783343        9.8300523137
  C         8.6157122602        4.6006564985        9.7113613107
  C         9.4160459656        3.9866347225        7.8270260908
  C        10.0074000722        2.4773263818        9.8206787686
  C         8.9847115480        5.7379721802        8.9569618352
  C         8.1639275144        4.9580038585       10.9698351013
  C         9.4204566090        5.3729939462        7.6761210598
  C         9.7158409058        3.3098900711        6.6453859649
  H         9.5661621860        1.8107596979       10.5983233165
  H        10.5051395616        1.8648182888        8.9848391173
  C        11.0724317096        3.4235673392       10.4120070543
  S         8.6494624617        7.2211329481        9.8004927688
  C         8.1054543434        6.3029245711       11.1034290960
  H         8.0336234128        4.1383837853       11.6357574179
  C         9.8461837878        5.9321106922        6.4773762254
  H         9.6536705043        2.2683185373        6.5955082347
  C        10.0316322417        3.9396354461        5.4760926582
  H        10.7116917165        4.2376919591       11.0663604212
  H        11.6818414852        3.8568502541        9.5666058002
  C        12.1705288329        2.8170866916       11.3395011458
  C         7.5437014351        7.0220089381       12.2874996049
  C        10.0864177752        5.2483051296        5.2882755936
  H         9.9723454110        6.9408018227        6.3427445310
  C        10.3953328117        3.4209649959        4.2057517642
  H        12.9856648890        3.5078106013       11.4859468403
  H        12.5925177489        1.9066674587       10.8708472119
  C        11.6148225134        2.5142249451       12.7142427239
  C         7.6070707416        8.3933453907       12.6833756607
  C         7.1650481591        6.1194343537       13.4272350056
  C        10.4292037232        5.8006212619        3.9459907525
  C        10.6747431733        4.4064532003        3.3095055061
  S        10.6209847402        1.8367210410        3.5297098915
  H        11.0874752439        3.4229865755       12.9933053222
  H        10.9702017211        1.5593386492       12.5997888119
  C        12.6321559811        2.1350754204       13.8538659931
  N         8.0061106098        9.3983544168       11.8483883610
  C         7.2997135667        8.8774276801       13.9213497647
  C         6.8989419351        6.6170190719       14.7314417555
  H         7.1666477508        5.0810412456       13.2394459606
  C        11.8694518704        6.5596834577        4.1315086560
  C         9.3843615391        6.5737412548        3.2128763864
  C        11.1724796730        3.9015925356        2.0885324330
  C        11.1748094667        2.5172202983        2.0264630937
  H        13.5590292986        2.6764769133       13.5966531027
  H        12.7494869996        1.0710508198       13.7764183498
  C        12.1733538065        2.5996459108       15.2055737907
  S         8.0986542091       10.8293939817       12.6376451966
  N         7.5238965860       10.2487442881       14.0475716593
  C         6.9272407648        8.0716076433       15.0139012185
  H         6.7493303892        5.9141286615       15.4923808379
  H        11.7146979268        7.5031929990        4.5762818734
  H        12.3307313865        6.8367504555        3.0664046789
  C        12.9480129918        5.7221161253        4.8522186296
  H         9.0276942681        7.2888076818        3.8785112204
  H         9.8946897856        7.1127790949        2.4613690078
  C         8.1892846131        5.6998964063        2.8347065405
  H        11.4820974278        4.6310988572        1.3296289335
  C        11.5692228515        1.7245801284        0.8351852038
  H        12.1104373896        3.6637357022       15.2137889457
  H        11.2002831536        2.3269052977       15.4982901827
  C        13.1694576410        2.3728556215       16.3761654328
  C         6.7987795486        8.6608805581       16.2972956079
  H        12.6036408321        5.2045324283        5.7304126439
  H        13.3594919702        5.0259508370        4.1389274199
  C        14.0678294008        6.5324056912        5.4664648780
  H         7.7897526326        5.2392652869        3.6683987743
  H         8.4670256946        4.9930581129        2.0817259552
  C         7.1060180571        6.5773268050        2.2125268780
  C        11.6500191804        0.3160042692        0.7579429185
  C        11.7914074115        2.4512102818       -0.4490549545
  H        14.1055061102        2.6557548176       15.9503917610
  H        13.0791669992        1.2712459693       16.5826782380
  C        12.7142328748        3.1420191599       17.6165129628
  H         6.5333856891        9.7284998105       16.2751033534
  C         6.5349901020        8.1293479380       17.5544005319
  H        13.7146780304        7.2615758724        6.2248008914
  H        14.5953108770        7.2315447810        4.7604303803
  C        15.1502724169        5.7470419980        6.0884940127
  H         7.1943256240        7.5977706310        2.5590531748
  H         7.2325865661        6.7628397711        1.1690836641
  C         5.7199527035        5.9110263051        2.3795324386
  N        11.3336449979       -0.6118064012        1.7593289200
  C        11.9359515558       -0.3752596464       -0.4394887039
  C        12.0598402510        1.8246213505       -1.6182592081
  H        11.5133503312        3.5078028853       -0.4542789375
  H        12.4514369999        4.1306934689       17.4048028914
  H        13.5145978576        3.0874283366       18.3525586056
  H        11.9721596234        2.5934852200       18.1988603814
  S         6.2633816815        6.4799311062       17.9504386646
  C         6.3357921914        9.0986887920       18.6414709432
  H        14.9744733490        5.6030112096        7.1301641783
  H        15.0452977072        4.6728395512        5.7040307688
  C        16.5476693361        6.2947959707        5.8412305618
  H         5.5204086536        5.9849353534        3.4466018624
  H         5.8399468432        4.8864454900        2.0065657776
  C         4.4705694232        6.6845741559        1.7588798315
  S        11.4294583285       -2.1455029570        1.2041989213
  N        11.7371608252       -1.7988319293       -0.3650895079
  C        12.1939369766        0.3422921296       -1.7262051064
  H        11.9912514618        2.3659085072       -2.5240801233
  C         5.8810312208        7.0735661666       19.5923981873
  N         6.0512071520        8.3938903108       19.7399998822
  O         6.4755501384       10.3182870256       18.5308391514
  H        16.9051869870        5.8819884284        4.8951389498
  H        16.5772054527        7.3461471641        5.9273100334
  C        17.3786996556        5.7809563414        6.9691253131
  H         4.6490939695        6.9424135209        0.6815844508
  H         3.5491516096        6.0596903543        1.7580136308
  C         4.2289437037        8.0067673343        2.5017203688
  C        12.5318135721       -0.3901681891       -2.8895866905
  S         5.7723882869        6.0229832580       21.0479171682
  C         6.1076363554        8.9256983757       21.0666574180
  H        17.2545578737        6.4567895323        7.8124896151
  H        16.9881775124        4.8127472786        7.2350099975
  C        18.8741353377        5.7994241401        6.5954008584
  H         5.1290146342        8.4991340374        2.6729764858
  H         3.9327860049        7.7581096584        3.5256446752
  C         3.1136167251        8.8912114802        1.8784941375
  H        12.5499516414       -1.4997165346       -2.6968479100
  C        12.9561341226        0.0418378537       -4.1544060564
  H         5.3416667817        8.5510260445       21.7111563732
  H         5.7586537044        9.9736652027       20.9604543076
  C         7.5010644508        8.9123630654       21.6896823844
  H        19.5204173797        6.0233167053        7.5358764012
  H        19.0904422484        6.6177958884        5.9782478209
  C        19.3280128020        4.5633637769        5.8392808749
  H         2.4000046223        8.1335094284        1.5331984928
  H         2.6688763009        9.5232589477        2.5859099685
  C         3.4936716062        9.5496875210        0.5580958480
  S        13.4476567341        1.6345243275       -4.6013675372
  C        13.1981029560       -0.9439173316       -5.1953677514
  H         8.1728682424        9.5360512955       21.0336040814
  H         7.8213915046        7.9203475614       21.7151489296
  H         7.5870385519        9.3225688963       22.6777139824
  H        20.3490135077        4.2524729363        6.1853961852
  H        18.5937319569        3.7012720048        6.0084347871
  H        19.3688098115        4.7602838503        4.7978163789
  H         3.9891217076       10.4958139840        0.7376323142
  H         4.2757340348        8.9722974799       -0.0198851528
  H         2.6206006953        9.7214082270       -0.1079546074
  C        13.6564250693        0.9088227252       -6.1642769390
  N        13.6625716943       -0.3671612434       -6.3090196483
  O        13.0057556530       -2.1540542189       -5.0609530963
  S        14.3412892348        1.9109758799       -7.4197661139
  C        13.7321991941       -1.0671781404       -7.5080140097
  H        14.3108345426       -2.0191695794       -7.4769906169
  H        14.2780182679       -0.5639088241       -8.3890238267
  C        12.3918178309       -1.4532101730       -8.1191445126
  H        12.2018740988       -0.7743540698       -8.9277670819
  H        11.4638880259       -1.3989229861       -7.5031531561
  H        12.4133770918       -2.4603460790       -8.3785958474
