352
 i =    14900, time =     7450.000, E =       115.3705930977
  H        10.6079968561        4.2147468744       32.6192125638
  C        10.9546101197        5.2200337563       32.7163012833
  H        10.6629257270        5.4644864284       33.7180562714
  C        10.3320469425        6.1233226309       31.5845318884
  C        12.5464350623        5.3053072254       32.7662888676
  C        10.7427444365        5.5925952325       30.1893369309
  H         9.3043336843        5.9986245877       31.6067823786
  H        10.5551814841        7.1711899967       31.6915222257
  H        12.7522566917        6.3330433352       32.5214312358
  H        13.1646411268        5.1270818662       33.6377877981
  H        13.0258707698        4.6756662146       32.0140133713
  C        10.0581575200        6.1774485883       29.0435996171
  H        10.6040477714        4.5191594843       30.0840200632
  H        11.8039334297        5.7118226580       30.0386042329
  C        10.5860348588        5.6936237684       27.6768368556
  H         9.0097852325        5.8277474089       29.2557663445
  H        10.1168068730        7.2478539168       29.1554474505
  C         9.6118318685        4.9587603178       26.7853834815
  H        11.4220736660        4.9855241685       27.8867876288
  H        11.1829105164        6.5654697773       27.2083856743
  C         8.5063527100        5.8789955747       26.2242337407
  H        10.1936793690        4.5869185199       25.9167147579
  H         9.3617256795        4.1513701377       27.4182320898
  C         7.3306643957        5.0930514692       25.5940013144
  H         7.9703771605        6.5509618400       26.9621229177
  H         8.8405741011        6.6256192169       25.4933611142
  C         7.0642749359        3.6615807162       26.1782012796
  C         7.8122156342        4.4469631564       24.2633470129
  C         5.9959926555        5.8823758596       25.5512905736
  C         7.2932568185        2.6265146075       25.3760197929
  C         6.4815677505        3.2878246803       27.4097374485
  C         7.6964801999        3.0902851207       24.1731917966
  C         8.2800372088        5.0508131207       23.1512355648
  H         6.2947884973        6.7375989327       25.0204774405
  H         5.6149004630        6.3731270005       26.4531354868
  C         4.8630648346        5.1670837872       24.9210368718
  S         6.9718166920        1.0514650827       26.0561531079
  C         6.3683695171        1.8592672913       27.4758413436
  H         6.0972614660        4.0196736997       28.1252216663
  C         8.1448225356        2.4701012354       23.0198014103
  H         8.3009248818        6.1257355069       23.1747740983
  C         8.5462576549        4.4085725814       21.9622305205
  H         5.1293845777        4.8011818972       23.9481467526
  H         4.6542648643        4.2809684906       25.5364513233
  C         3.7141406214        6.1021393039       24.6416821520
  C         5.8263395494        1.1686149609       28.7205766468
  C         8.5538521200        3.0991401862       21.8364743649
  H         8.1343445688        1.3796805771       22.9881326692
  C         8.9806434652        4.8557997436       20.7028640154
  H         3.2609465306        5.4264040870       23.9163563593
  H         4.0821321702        6.9591043159       23.9149511204
  C         2.8315083300        6.5112220824       25.8501192077
  C         5.8933449324       -0.2586080433       29.0257822683
  C         5.1356358971        1.9792138231       29.7712325949
  C         8.8890069911        2.4175962213       20.5583803598
  C         9.1678361762        3.8002670930       19.8590621135
  S         9.2572790807        6.4028809002       19.9445227378
  H         1.9613758543        7.0712009645       25.4677931356
  H         3.3909487659        7.1684082205       26.5052434872
  C         2.3607408241        5.3519881385       26.7152551322
  N         6.4305021395       -1.2584472037       28.1979914628
  C         5.5870546655       -0.8115194496       30.2313338883
  C         4.7844291574        1.4029219653       30.9490340462
  H         4.7551120153        2.9256861524       29.5163005547
  C         7.6693753133        1.8135348394       19.9355879112
  C        10.2058972547        1.5480875967       20.5167311244
  C         9.4203748625        4.3001705439       18.5428098995
  C         9.4963253894        5.6268502972       18.4213984233
  H         1.5819420012        4.7022526656       26.1583192171
  H         3.1229532461        4.7433551221       27.0838583358
  C         1.6885846878        5.9554980117       27.9607700024
  S         6.4577786054       -2.7077234449       28.9429293025
  N         5.6965558082       -2.1708585787       30.3240600937
  C         5.0206186902       -0.0184490355       31.3270060888
  H         4.2338599597        2.0293985378       31.6010009774
  H         7.1944759851        1.2273783072       20.6998916318
  H         7.9863152330        1.2224845111       19.0768904079
  C         6.4634717149        2.7165344377       19.5015761880
  H        10.3526879013        1.1166933735       19.6083175160
  H        10.2280874342        0.7885469131       21.2292034427
  C        11.5132610725        2.3241427544       20.7995770451
  H         9.4218017962        3.5868662873       17.6966245265
  C         9.7908382667        6.3423090898       17.0896422427
  H         0.8616211489        6.4588319104       27.6058966259
  H         2.2128029809        6.5681653889       28.6261427674
  C         1.1031773680        4.9575602309       29.0073793879
  C         4.7228376688       -0.6554407696       32.5486140113
  H         6.6318057186        3.3210931850       18.6493761795
  H         6.1774612769        3.4818709737       20.2389461598
  C         5.1949187365        1.9327708486       18.9785753981
  H        11.3623103540        3.0156829092       21.6199465250
  H        11.8197369637        2.8081205191       19.8653276350
  C        12.7123309647        1.4068195501       21.0814345113
  C        10.0043859315        7.7523390198       16.9023880282
  C        10.0707791915        5.5314222643       15.9479254855
  H         0.2798079608        4.3336880864       28.6097045830
  H         1.9676420669        4.3103605888       29.2213767380
  C         0.7231098564        5.5477338332       30.3407254843
  H         4.5287680839       -1.7032091948       32.4569701907
  C         4.5606274191       -0.2074597842       33.8093397557
  H         5.0432497938        1.1162874307       19.6616382963
  H         5.4714288566        1.5138611788       18.0247777317
  C         3.9349163278        2.8408961769       18.9765669657
  H        12.4403464321        0.6614015775       21.7508325543
  H        13.0923735980        0.7993936874       20.1928853363
  C        13.9767242750        2.1483776933       21.6471175696
  N         9.6878099824        8.6493303076       17.9141151204
  C        10.4131845277        8.3119654351       15.7167803942
  C        10.5034559999        6.0711819911       14.7270218284
  H         9.8559889544        4.4811303934       16.1113784131
  H         0.1985122337        4.8537774164       30.9915648847
  H         1.6520900117        5.8275355599       30.7669040392
  H         0.2956028705        6.5992307550       30.2676776269
  S         4.3235670433        1.3333091855       34.2951092395
  C         4.5518158177       -1.2366033286       34.8712539758
  H         3.8852193994        3.5513721065       19.8795632141
  H         3.9867169857        3.5476719711       18.1103509737
  C         2.6224669233        2.0457130567       18.9956125543
  H        13.6984435636        3.2128629166       21.5383357220
  H        14.8841997835        2.0171074243       21.0909673674
  C        14.3334222513        1.8848697647       23.1259593120
  S        10.0716039345       10.1158486073       17.3373273694
  N        10.4169593093        9.6812094353       15.7633900004
  C        10.6411447284        7.5664338671       14.5401561775
  H        10.6354861395        5.3854081874       13.8985871726
  C         4.1954433738        0.7664531093       35.9508150731
  N         4.2388869608       -0.5958946458       36.0521843293
  O         4.7222733094       -2.4237953958       34.6575952843
  H         1.8856894196        2.7486823836       19.1398393870
  H         2.6726194651        1.3962265672       19.8717566462
  C         2.4164991403        1.1425465428       17.7750927493
  H        13.4392487267        2.1201880237       23.8366917612
  H        14.6531641556        0.8753969963       23.2199373106
  C        15.4652561060        2.9003385840       23.5480735539
  C        11.0316560416        8.1567442274       13.2962943326
  S         3.8751295905        1.8152397532       37.3224165574
  C         4.2891213317       -1.3415781804       37.3510216522
  H         1.4961041995        1.4199885297       17.1322252279
  H         3.2826743422        1.2234548186       17.0804866060
  C         2.2308976414       -0.4159375332       18.0484420192
  H        15.4093527042        3.0311356332       24.5955317123
  H        15.5559243285        3.8502608900       23.0463027887
  C        16.8217920588        2.2967209301       23.5318020678
  H        10.7354662814        9.1831807939       13.1723083075
  C        11.6205379367        7.6974280014       12.1509399709
  H         3.5845108175       -0.9188387734       37.9742850713
  H         4.0995259726       -2.4013185218       37.1459705510
  C         5.7828806197       -1.3515251888       37.8373862154
  H         1.3862222606       -0.5871998905       18.7125824136
  H         3.0798370133       -0.8486979673       18.6342881323
  C         2.0893265665       -1.3333288292       16.8568025057
  H        17.3549862288        2.8069159494       24.3164145347
  H        16.7148118843        1.2988490668       23.9534345176
  C        17.6801823570        2.4344741850       22.2380291897
  S        12.0798896679        5.9849668590       11.8904282494
  C        11.6770291987        8.6529048009       11.0697866009
  H         6.0303852608       -0.4708868538       38.5006261437
  H         6.0540144463       -2.2971697101       38.3684444836
  H         6.3822486455       -1.2413277458       36.9353854145
  H         1.9467433640       -2.3745612744       17.1803849646
  H         2.8443970421       -1.3123151846       16.0972256400
  H         1.2464052261       -0.9453233225       16.2778696698
  H        17.9607732239        3.4609851874       22.0606388322
  H        17.1562298299        2.0644573870       21.4295821073
  H        18.6547180656        1.9056341803       22.2750554672
  C        12.6389896340        6.6968842375       10.3124402366
  N        12.1430851743        7.9495799599       10.0267497108
  O        11.2230962699        9.8515073540       11.0792720056
  S        13.2790190765        5.6690490039        9.1274751449
  C        12.2827030823        8.5533322958        8.6924229440
  H        13.0196726641        9.3058499939        8.8630863954
  H        12.6751081422        7.9243803223        7.9022240033
  C        10.9279008665        9.2350425302        8.2634185809
  H        11.1574255716        9.8064586701        7.3596032871
  H         9.9462808882        8.6745219614        8.0763048359
  H        10.5489106078        9.9990933542        8.9702367705
  H         4.8026652205        1.8206324735       12.7620153905
  C         3.8609659697        2.4070416441       12.9899901999
  H         4.3706749982        3.4196657225       13.0201075961
  C         2.7964605147        2.3607658957       11.8954435137
  C         3.3338727526        2.1007628083       14.3374699510
  C         3.3855318376        2.7026135388       10.5329501917
  H         1.9421289325        3.0721856918       12.1564016516
  H         2.2735863013        1.4417417094       11.9303283620
  H         2.6232904666        1.2899584485       14.3305419633
  H         2.8769031124        2.9625671465       14.7238072258
  H         4.0640846474        1.7139069106       15.0719487332
  C         4.1767599728        1.4724793917        9.9680288180
  H         2.5445876697        2.9591737505        9.8429494960
  H         3.9589730310        3.6036450107       10.5966576115
  C         4.8950258149        1.7197305371        8.6362395441
  H         3.5764196700        0.5757577622        9.9357935262
  H         5.0420139388        1.3254185589       10.5968579402
  C         6.1874626006        2.5783385159        8.6027241650
  H         4.1953116242        2.2090837522        8.0313522586
  H         5.2632382548        0.7458848933        8.2706500040
  C         7.4472442757        1.7595768805        9.0754854955
  H         6.4430938079        3.0938448221        7.6876547927
  H         5.9486084696        3.4121437581        9.3069112714
  C         8.6963265367        2.6356404198        9.3271559539
  H         7.7834661386        1.0445724732        8.3834920083
  H         7.2498588441        1.2509556523       10.0116936700
  C         8.4255366852        3.9903091559       10.0339624555
  C         9.1210621760        3.3338747442        8.0130315599
  C         9.8928704010        1.8269842690        9.9382931965
  C         8.5049921670        5.0998501591        9.1984373761
  C         7.8697836743        4.3627827111       11.3016071520
  C         9.0051185346        4.6841360132        7.9584766184
  C         9.6927931241        2.7776267624        6.8423102640
  H         9.6669950558        1.3810092107       10.8811419660
  H        10.0155664656        0.9731483717        9.2935817502
  C        11.1851229184        2.6668941454       10.0735636466
  S         8.1293009297        6.6140976568       10.0309676522
  C         7.8599493897        5.7349359558       11.4364622658
  H         7.5901104300        3.6754380846       12.0242009559
  C         9.4376162363        5.3559607210        6.8694311349
  H         9.7328124799        1.7333395808        6.6865151729
  C        10.1319004724        3.5146700920        5.7565394546
  H        10.9384647833        3.6841328531       10.3627395249
  H        11.7272899665        2.7703776136        9.1451468806
  C        12.0666024821        2.1893332288       11.2674758078
  C         7.5938664711        6.3808470579       12.7484557119
  C        10.0096181279        4.8505353155        5.6896372348
  H         9.3762073208        6.4507837185        6.9011324455
  C        10.6479419669        3.1474105568        4.5627825974
  H        13.0281207281        2.6866260361       11.1348940435
  H        12.2197845038        1.1128762928       11.1797989741
  C        11.5249475127        2.4970010925       12.6876440395
  C         7.6576277025        7.7683593292       12.9998742861
  C         6.9198366329        5.6530241249       13.8342424189
  C        10.4171948991        5.5606909037        4.4523415808
  C        10.7434498508        4.2465837399        3.7383421052
  S        10.9475593464        1.6234642322        3.7999371624
  H        10.8553563505        3.2771610547       12.6202257661
  H        10.9565025977        1.6184462013       12.9493049190
  C        12.6846188909        2.7559287150       13.6666197020
  N         8.1839194295        8.6918272214       12.1215598708
  C         7.2879530737        8.3818748167       14.2033581697
  C         6.6385501172        6.2571675008       15.0347365781
  H         6.8435165816        4.6062486171       13.8255915736
  C        11.7431420311        6.3816520898        4.6651562237
  C         9.1902936543        6.3279556714        3.7586561422
  C        11.0591725436        3.8283579840        2.4181762353
  C        11.3057573188        2.4780640396        2.3173649599
  H        12.2765029343        3.5570078441       14.3609480131
  H        13.6115018182        3.1122123878       13.1766408411
  C        13.0378426617        1.4765348855       14.5370315948
  S         8.1775521077       10.1284232458       12.7599391386
  N         7.5035949088        9.7220161357       14.2069125360
  C         6.8422271058        7.6912461204       15.3075075498
  H         6.2748820100        5.6968600974       15.8674969564
  H        11.6475180492        7.2614950754        5.3095740372
  H        11.9932749775        6.7153026784        3.6286573186
  C        13.0336357197        5.6151594132        5.0671655145
  H         8.7035562945        6.8793283793        4.5439964197
  H         9.6824147091        7.0861404861        3.0834740443
  C         8.2719912080        5.4533260938        2.9503132919
  H        11.0896354994        4.5477703303        1.6532102610
  C        11.6964377575        1.7119316496        1.1151237453
  H        12.1574250362        1.0017399170       14.8591120813
  H        13.6245507620        0.7550388572       13.9371321516
  C        13.7486988728        1.7241186581       15.8299400319
  C         6.6239610331        8.4003031856       16.5262280161
  H        12.7496690220        5.0538601278        5.9576883002
  H        13.2177556680        4.8495066595        4.3199235873
  C        14.1666358153        6.5910638921        5.2897010611
  H         8.1088333102        4.4313652566        3.3857502495
  H         8.7256087831        5.4030510658        1.9597462449
  C         6.9641510121        6.1618869929        2.6595045819
  C        11.7611449280        0.3124117035        0.9879401619
  C        12.1041552796        2.4587754182       -0.1075572650
  H        14.6038703111        2.4146821454       15.6367425000
  H        14.1552642268        0.8114031557       16.1764238392
  C        12.9260346080        2.4542588630       16.9110590574
  H         6.6356987153        9.4549266212       16.4748488039
  C         6.4613510925        7.9506082260       17.7827963774
  H        14.1710602999        7.1851852729        6.1588199033
  H        14.1495087153        7.3320872790        4.4636956634
  C        15.5171159841        6.0716069521        5.3115665860
  H         6.5111633213        6.4705954933        3.5932615145
  H         7.1522274455        7.0904400844        2.1375583784
  C         5.8594229582        5.3888560050        2.0242454203
  N        11.6436869505       -0.6023708731        2.0070149387
  C        11.9922032789       -0.3655181717       -0.2268022976
  C        12.3854362712        1.8253650460       -1.2942298625
  H        12.2171339603        3.5427491739       -0.0353699140
  H        13.5492614206        2.7982680619       17.7295209161
  H        12.1292134105        1.9118315626       17.3107579643
  H        12.4740068167        3.3430297867       16.5030890332
  S         6.1327546181        6.2841181470       18.2302882032
  C         6.3451804570        8.9248141345       18.8255370849
  H        15.6173601566        5.2507300557        4.6026999504
  H        16.2414623581        6.8895568725        5.1604587741
  C        15.9128775703        5.4933523702        6.6997718540
  H         5.1849989857        4.8108319841        2.7174989114
  H         6.3405820401        4.6226539640        1.3639539264
  C         5.0526866159        6.3322141367        1.0009357024
  S        11.4543928514       -2.0860668405        1.4151705769
  N        11.8923131212       -1.7760183723       -0.0835637351
  C        12.4057747121        0.3533450398       -1.3650209169
  H        12.8336310238        2.3204323280       -2.0916375714
  C         6.0477973001        6.9856822040       19.8620937191
  N         6.0407864137        8.2989181868       19.9990644031
  O         6.7222096182       10.0648235336       18.7290922339
  H        15.8879465274        6.2745118441        7.4493954899
  H        15.3834869076        4.6697251641        7.0151716908
  C        17.4075906911        5.0046879962        6.9318810897
  H         5.7657546578        6.7789659412        0.3440533241
  H         4.4835572207        5.6840653916        0.3311229770
  C         4.1741456149        7.3158767782        1.7683271596
  C        12.5705185910       -0.3980148900       -2.5958292796
  S         5.6407056544        6.0279797022       21.3459460879
  C         6.0354252746        9.0510837238       21.3018637134
  H        17.6080488839        5.0115366422        7.9986398183
  H        17.6841842420        4.0955418678        6.4793822985
  C        18.4511825944        6.0146706577        6.5083164070
  H         4.3333193214        7.3946336184        2.8602988385
  H         3.3139820408        6.6146394940        1.8440665894
  C         3.8152428876        8.5731399959        1.0487981779
  H        12.2732719212       -1.3350537369       -2.3630821411
  C        13.1183496030       -0.0874492365       -3.8379304771
  H         5.5377960265        8.5525700922       22.1926095152
  H         5.6810014820       10.0431655581       21.0962867035
  C         7.5346394957        9.1976004328       21.5798497231
  H        18.4513055234        6.7676964560        7.2909609429
  H        18.3162369224        6.4636360269        5.5390918985
  C        19.8716554225        5.4785398920        6.3589064587
  H         3.4123051743        8.3948288527        0.0765281438
  H         2.9334280543        9.0064033544        1.5573814718
  C         4.9850193976        9.5329571759        0.9452568646
  S        13.6603226519        1.4094809372       -4.4022802426
  C        13.2562516756       -1.1576679700       -4.8470325631
  H         7.7093052859        9.3020000404       22.6619904621
  H         7.9518206643       10.0715073997       21.0749345429
  H         8.0555105215        8.2786809922       21.3749632228
  H        20.3943597582        6.2150454663        5.6898794908
  H        20.3028557393        5.3572352295        7.3343468576
  H        19.9248307074        4.5325116321        5.8268438122
  H         5.0680501469        9.7167767017       -0.1197680437
  H         4.6678861214       10.5068609131        1.3361262159
  H         5.9054432471        9.0662370432        1.3474689012
  C        14.1554670118        0.6729841051       -5.8368197070
  N        13.8911815278       -0.6446611540       -5.9066309883
  O        12.7402421485       -2.3099099728       -4.6873469662
  S        14.8311115838        1.5203762381       -7.2553225589
  C        14.2001890180       -1.3947845216       -7.1500357060
  H        14.4854701987       -2.4140542314       -6.9219817692
  H        15.1372992350       -0.9350900247       -7.4740928759
  C        12.9736886906       -1.2760388672       -8.0518407199
  H        13.1388155256       -0.6614028396       -8.9300258860
  H        12.0856621959       -0.9021262006       -7.4267452013
  H        12.7209737521       -2.3035471413       -8.4069191539
