352
 i =    10600, time =     5300.000, E =       138.1182809622
  H         9.7882205489        4.7791093494       32.2593794277
  C        10.1997219633        5.7395457371       32.3475115667
  H         9.4062492253        6.5573840918       32.2985220625
  C        11.3515631752        5.9291882381       31.2883039642
  C        10.5832153685        5.8968435042       33.7915331485
  C        10.9059585248        5.3546929928       29.9824067564
  H        11.6472379375        6.9886227664       31.1318374003
  H        12.1177783470        5.3919816254       31.7550962014
  H         9.8119652888        5.9608162026       34.5680704410
  H        11.3071950457        5.0647925479       34.0738331747
  H        11.1090322514        6.8347589626       33.8255516564
  C        11.0310403766        6.4586118254       28.8605265431
  H         9.8736370934        4.8889234337       30.0124078071
  H        11.5584426865        4.5923457578       29.5512319508
  C        11.0662122034        5.9084387045       27.4389267102
  H        10.4297038047        7.3762088980       28.9873491936
  H        12.0455860998        6.8537282569       28.8526869876
  C         9.7517245902        5.2044032179       27.1007163678
  H        11.7451833699        5.0634976603       27.3566419330
  H        11.5308080996        6.4961999881       26.6445884335
  C         8.6943164801        6.0077097782       26.2864370010
  H        10.0189050131        4.4552708300       26.3470455554
  H         9.2769141207        4.7205643425       27.9178862928
  C         7.5379493294        5.3368449964       25.5157993418
  H         8.0964591115        6.5020475347       27.0808995744
  H         9.1569912942        6.8557305335       25.7676742313
  C         7.1213323985        4.0145909803       26.1829482642
  C         7.9099243105        4.6541975577       24.2766070118
  C         6.2790183989        6.1880962442       25.4050414078
  C         7.2510946101        2.9132052598       25.3660767273
  C         6.6341546742        3.5900482631       27.3921448792
  C         7.7924704841        3.3152221817       24.1341377474
  C         8.2638066711        5.3189631132       23.1207764521
  H         6.7183994761        6.8377717060       24.6156780356
  H         5.9992302695        6.8090237905       26.2318585159
  C         5.0576799087        5.4191484343       24.8049215810
  S         6.7995402585        1.3868741846       26.0238004761
  C         6.3391859814        2.2182873944       27.4397975725
  H         6.6131444217        4.3089298889       28.1493769321
  C         8.0511948267        2.7895507774       22.9270591282
  H         8.4285380472        6.3575871034       23.2638192826
  C         8.6437172577        4.7385390023       21.8789321032
  H         5.2365797365        4.8987840190       23.8781210860
  H         4.5944363375        4.7311735674       25.5610249022
  C         3.8724151002        6.3424826636       24.6264680121
  C         5.8009448252        1.5912178997       28.6867974759
  C         8.5426702394        3.3859734698       21.7179953741
  H         7.8403683562        1.7135552370       22.8114674082
  C         9.1436942033        5.1610755620       20.6490462908
  H         3.1433988755        5.8179732548       23.9936758182
  H         4.1581579137        7.1219010172       23.9757542528
  C         3.2551670608        7.0608833625       25.8452479446
  C         5.8172149161        0.1559599586       28.8783386729
  C         5.1895536231        2.3822972087       29.7856651287
  C         8.8812466346        2.6517247454       20.4911035104
  C         9.2981149887        4.0282497797       19.8085725275
  S         9.4655636982        6.6780467177       19.9779997796
  H         2.9146267886        8.0730328939       25.4361381679
  H         3.8671087321        7.2218763975       26.6646971932
  C         2.1980142400        5.9670183450       26.4869919938
  N         6.2621612019       -0.7363877309       27.9275687547
  C         5.4608477837       -0.3840075370       30.0750710392
  C         4.8872911269        1.7604609712       30.9952848302
  H         4.9234274570        3.4448963779       29.6586138872
  C         7.7836185857        1.8728904800       19.7725713229
  C        10.0696240525        1.7219124473       20.6313434889
  C         9.6956179102        4.4696413512       18.5871560478
  C         9.8624393996        5.8877048909       18.5156061819
  H         1.5189358641        5.6401809909       25.7012519590
  H         2.7420574655        5.0912936276       26.8442277200
  C         1.4684195362        6.3832092659       27.7481675025
  S         6.0878155348       -2.1824104814       28.5660960348
  N         5.6279591249       -1.7536562113       30.0422701156
  C         5.0118240005        0.2911953067       31.2147915063
  H         4.4692254825        2.3201840715       31.7704507003
  H         7.5079182042        1.0947767058       20.5464847118
  H         8.0312112127        1.2464449244       18.9375102223
  C         6.6845291667        2.7306260240       19.1806248700
  H        10.2683954918        1.1278123823       19.7877542646
  H         9.8552174115        1.0965074246       21.4997534165
  C        11.3791190980        2.3957521670       21.0917030613
  H         9.8661522296        3.7517711990       17.7163812033
  C        10.1819558737        6.5390187246       17.1706301824
  H         0.5658605683        6.7819869050       27.4065652978
  H         2.1385869486        7.2986797365       27.9704076486
  C         1.2837313853        5.3314680255       28.8759574461
  C         4.7366303754       -0.4356567980       32.4298053048
  H         7.0903562907        3.3656876292       18.3227074266
  H         6.1825434511        3.3002439703       20.0193890805
  C         5.5153015065        1.9317886028       18.6627195580
  H        11.1571887089        2.7845707135       22.0966692260
  H        11.6327733882        3.2578626837       20.4845591746
  C        12.5582056737        1.3511325569       21.0960022531
  C        10.2101541930        7.9597053574       17.0245756856
  C        10.2407206009        5.7284140792       15.9176152013
  H         0.5800517804        4.4999818982       28.6503359260
  H         2.3326671464        5.0639487889       29.1824629884
  C         0.6796941138        5.9200213211       30.1421538397
  H         4.7561754293       -1.5420560390       32.2891363009
  C         4.3718489948       -0.1187967718       33.7333591208
  H         4.9642222417        1.5851942351       19.5391573363
  H         5.9703097469        1.1916381897       18.0531112635
  C         4.4969373710        2.7837001222       17.8545868187
  H        12.3039364764        0.6614558093       21.9010315354
  H        12.7111574556        0.7835427984       20.1886641028
  C        14.0259599283        1.7779022831       21.2157923834
  N        10.0155248631        8.8533509422       18.0921757525
  C        10.3324310145        8.5800483423       15.7916576729
  C        10.4641248563        6.3360428302       14.7017726635
  H        10.2355456609        4.6647254404       15.8966502581
  H         0.7009129575        5.3210148878       31.1043403302
  H         1.4279771467        6.6606540990       30.4062515462
  H        -0.3247339305        6.2706055232       30.0816434855
  S         4.1051594248        1.4557966829       34.3520010512
  C         4.3383258697       -1.1645625752       34.7922449515
  H         4.3940504723        3.7359303872       18.5135272313
  H         4.9404049129        3.0658782174       16.9720298697
  C         3.2081053218        2.0391229959       17.7044617116
  H        14.2892946494        2.5646819788       20.4892722639
  H        14.5258201822        0.8055314527       20.9256558944
  C        14.2224112644        2.2413503570       22.6959591843
  S         9.9960567516       10.3926072354       17.3847511739
  N        10.3677689099        9.9639062712       15.8945106306
  C        10.6464765994        7.8447180437       14.6066721712
  H        10.7540915826        5.7466904249       13.8391116533
  C         3.7594231770        0.7889144207       35.8829305715
  N         4.0262806528       -0.5849814938       35.9584252289
  O         4.5407303881       -2.3305539965       34.4934538084
  H         2.5036648285        2.6775442412       17.1886148668
  H         2.6668966792        2.0139988217       18.6898722734
  C         3.2856462653        0.6672021905       17.0253391539
  H        13.5981940043        3.0864035806       22.9251039387
  H        13.9013860885        1.4215272587       23.4395112981
  C        15.5706028489        2.7763271622       22.8729191665
  C        10.9977411462        8.5898413038       13.3932957379
  S         3.6039871529        1.7249495907       37.3428930699
  C         4.0430922093       -1.2394364716       37.2637069877
  H         2.5790909815        0.7165481577       16.3145737927
  H         4.2040392835        0.6031909188       16.5376293941
  C         3.1986865302       -0.5962417869       17.9321251559
  H        15.6991871735        3.1843543652       23.8607758086
  H        15.6148837675        3.6843709606       22.2529427259
  C        16.7023407937        1.7641688924       22.5109738248
  H        10.8932255000        9.5477902879       13.5838296461
  C        11.2278268669        8.1743090756       12.1017478062
  H         3.2496779135       -0.8972503295       37.8179585071
  H         3.7823571370       -2.3083776630       37.1291494473
  C         5.4498423385       -1.2432676566       37.8761808871
  H         2.9702926547       -0.2294564292       18.9609532633
  H         4.1941318421       -1.0520361129       18.0118847130
  C         2.1765661968       -1.5740187650       17.4670037441
  H        16.8365851814        1.0135035546       23.3439747673
  H        16.6030323261        1.3154568657       21.5431083769
  C        17.9903564168        2.4808213883       22.4833205343
  S        11.6344028525        6.6002665144       11.5675943530
  C        11.4575680028        9.2019861294       11.0748895636
  H         5.6388142082       -1.9922059399       38.6698555443
  H         6.1916661866       -1.4423424589       37.1691113225
  H         5.8151385478       -0.4030245356       38.3802055064
  H         2.3398697715       -2.5350402769       17.8843304060
  H         2.0278545596       -1.5993845826       16.3795358745
  H         1.2256207882       -1.2487278112       17.7499446603
  H        18.2448030825        2.5793197125       23.4743005382
  H        17.9888793073        3.4740055380       22.1032743869
  H        18.5986438392        1.8343847641       21.9170535101
  C        11.9884713066        7.2867869617        9.9299621237
  N        11.8980756073        8.6303481051        9.9522925527
  O        11.3509082858       10.4482648484       11.2822776298
  S        12.5013884596        6.4721579333        8.3805765999
  C        12.2056526322        9.3839375634        8.7833006436
  H        12.5873289408       10.3967244363        8.9545255386
  H        12.9937805485        9.0518547278        8.1677580586
  C        11.0207777805        9.4600846213        7.9144111268
  H        10.1079742131       10.0171857903        8.2857534556
  H        11.2594670493        9.9476000822        6.9934844372
  H        10.7905561093        8.4452220298        7.5725397700
  H         4.4503074757        2.0282189514       12.7713190283
  C         3.6578226196        2.8115693637       12.6302230119
  H         4.1984859841        3.7262502407       12.6752325323
  C         2.8245478036        2.6475677034       11.4059114840
  C         2.7550094920        2.7186338710       13.8842982609
  C         3.5587129389        2.8973428344       10.0925844865
  H         1.8271370894        3.1660314667       11.4339497549
  H         2.5140260833        1.6393068167       11.2736364883
  H         2.4843513003        1.6800193322       14.0356576728
  H         1.8520570637        3.3349877830       13.6654160204
  H         3.2816071036        2.9968615455       14.6953896020
  C         4.3827946410        1.6202569292        9.6856740246
  H         2.8926636138        3.2913448611        9.3122939541
  H         4.3574314110        3.6597300468       10.2178654740
  C         4.9347730864        1.7379709387        8.2719932417
  H         3.7312641731        0.7472896211        9.7534194100
  H         5.1098098124        1.5536931897       10.4692137188
  C         6.2247058067        2.6303847464        8.2333360674
  H         4.1826100540        2.2170400652        7.6168032038
  H         5.1146963720        0.7427701742        7.9534231795
  C         7.5355695506        1.9479891186        8.7836792748
  H         6.4371681541        2.9819016643        7.2063260499
  H         6.1262576777        3.5662180882        8.7897900697
  C         8.7936689153        2.9122988884        8.9604584124
  H         7.8451840488        1.1068676835        8.1943660139
  H         7.3122833137        1.5465155440        9.7591528735
  C         8.4296885111        4.2523785622        9.7140271747
  C         9.3074570545        3.7035107764        7.7799745664
  C        10.0215765112        2.3635809781        9.7118752232
  C         8.6575558655        5.4056894543        8.9750177896
  C         8.0473772730        4.5792649305       11.0395130025
  C         9.1889254352        5.0367653222        7.7031490504
  C         9.9087866711        3.1418095405        6.6511291736
  H         9.6453527896        1.7519219497       10.5137941927
  H        10.3548578267        1.6761951668        8.8978073588
  C        11.0477504203        3.4419807062       10.2207650349
  S         8.1114416938        6.7721676551        9.7376632968
  C         7.6989356271        5.8781318875       11.1672157882
  H         7.9823088193        3.8033772876       11.8692982511
  C         9.6457184791        5.6926448563        6.5976865775
  H         9.8833766745        2.0718316698        6.4585896649
  C        10.2201591296        3.8166557130        5.5222695413
  H        10.6935419840        4.2725125418       10.8255296379
  H        11.5968992471        3.9079091599        9.3482039234
  C        12.2139726003        2.8587218219       11.0705502984
  C         7.2033840244        6.5302884151       12.4088825804
  C        10.2592372665        5.1359835785        5.4804935841
  H         9.7547319205        6.7907105259        6.5269237383
  C        10.7694524746        3.5199059675        4.3154126460
  H        12.9688789479        3.6966626131       11.2373998011
  H        12.7927843547        2.1326648008       10.4510391069
  C        11.7737786009        2.3071929253       12.4240814790
  C         7.2913910574        7.9482986256       12.7312434292
  C         6.7443165880        5.7062853666       13.5973806751
  C        10.6997815742        5.8739501885        4.2755438745
  C        11.0729335915        4.6285418420        3.5650975094
  S        10.9805382007        2.0377796109        3.4654240760
  H        10.8081629097        2.5947041737       12.7261270772
  H        11.8194409773        1.2554189496       12.5226996674
  C        12.6614477878        2.7361964367       13.5327319442
  N         7.6499723934        8.9255966761       11.7813018416
  C         7.2298697086        8.4427901127       14.0130394169
  C         6.6682085595        6.1949181906       14.9558168002
  H         6.6950054300        4.6165560095       13.4090209972
  C        11.8909036943        6.8229738641        4.5757084557
  C         9.4810593065        6.6667505018        3.6500865609
  C        11.4869504481        4.2508093612        2.2755894274
  C        11.4704243889        2.9587137605        2.1066664444
  H        12.9240353177        3.7949274238       13.4104385675
  H        13.5953337773        2.1529183309       13.5187928218
  C        12.0345703421        2.6747651535       14.8888145897
  S         7.8535295128       10.3156086666       12.5987793673
  N         7.5327306298        9.8081619834       14.1038609125
  C         6.8381375614        7.6949285915       15.1401188781
  H         6.5929774016        5.5260352477       15.7991856701
  H        11.6560914919        7.5035085191        5.3814780664
  H        12.0203111557        7.5025668533        3.7005665875
  C        13.1145723704        5.9551876902        4.9330407640
  H         9.1945928527        7.4221837305        4.3075742439
  H         9.7112789290        7.1596792116        2.6391445502
  C         8.2977127128        5.7416920649        3.2748941469
  H        11.6547288946        4.9329506740        1.4947350651
  C        11.6871883512        2.2179218981        0.8052725620
  H        11.8832728609        3.6748049115       15.2363520021
  H        11.0292417345        2.1798797537       14.8046117626
  C        12.9077092090        1.8617568110       15.9021528185
  C         6.6693267700        8.3349271401       16.4172946082
  H        12.8066968768        5.3461063237        5.7867454223
  H        13.4034011813        5.2843503627        4.1576980571
  C        14.2922297596        6.8560356816        5.3654605709
  H         8.1425157947        4.9830209047        4.0462243205
  H         8.7003495030        5.1031033086        2.3982029461
  C         7.1534274416        6.7193562045        2.8143840712
  C        11.8625885452        0.8350030070        0.6990666163
  C        11.7040984305        2.9298625825       -0.4902972186
  H        13.9945403975        1.9864969662       15.8128276245
  H        12.6748957780        0.8698450229       15.6415554430
  C        12.6351174547        2.3217627298       17.3359752274
  H         6.2978067997        9.3774745997       16.3861534158
  C         6.4353310186        7.9554992011       17.7197735531
  H        13.9137160666        7.2579546186        6.2801444637
  H        14.3866294742        7.5841758953        4.5976187185
  C        15.5607088338        6.0384255606        5.5555239287
  H         6.9316948392        7.4130687202        3.6791452288
  H         7.6898215359        7.2645852474        2.0127455552
  C         6.0011382008        6.2637247061        1.9284131315
  N        11.7852487606       -0.0890681268        1.7871510368
  C        12.1351889107        0.1603431316       -0.4571407672
  C        12.0278432110        2.2629577161       -1.6898787296
  H        11.7316800973        4.0353612347       -0.4669337472
  H        13.4053408670        1.7908215548       17.9913890701
  H        11.6892343826        1.9551117693       17.6312808404
  H        12.6852819527        3.3319816848       17.4586797149
  S         6.1434961389        6.3486990384       18.2847089693
  C         6.4471436228        8.9697798223       18.7540406782
  H        15.3796217617        4.9649503287        5.2912869260
  H        16.3049054279        6.3016254601        4.8130226829
  C        16.0687647880        6.2772850264        6.9520894120
  H         5.3849025565        5.6823567913        2.5120498777
  H         6.4456244067        5.8226602858        1.1040889541
  C         5.1817597598        7.3896595595        1.3291390848
  S        11.8774641038       -1.6381824969        1.1736361661
  N        12.3482669317       -1.2292352528       -0.2765598159
  C        12.2062044199        0.8105328446       -1.7251573803
  H        12.1726999650        2.7772567490       -2.5851777646
  C         5.9131929063        7.1525748498       19.8311487042
  N         6.2703247448        8.4506239658       19.9446177813
  O         6.6844790134       10.1894282792       18.5767295949
  H        16.1741573061        7.3410930686        7.0016985476
  H        15.3845123354        5.8316471486        7.6784345918
  C        17.4036191766        5.5484234367        7.1721306694
  H         5.7561852928        7.9304280706        0.5240486634
  H         4.2971932504        6.9255643437        0.8540980963
  C         4.5388088477        8.3460501123        2.3570971330
  C        12.5015477143       -0.0157784194       -2.8544772492
  S         5.7868052092        6.1750838714       21.2675408660
  C         6.3788783617        9.2738606205       21.0903700459
  H        17.7361132214        5.5034814121        8.2089736718
  H        17.4081591342        4.4777732701        6.9395336379
  C        18.5319954517        6.2410877782        6.4949482270
  H         5.1855808938        8.9836054582        3.0278309057
  H         4.0921950340        7.7279423166        3.0639980084
  C         3.5372179653        9.3178344295        1.6716850099
  H        12.2099107745       -1.0487521729       -2.6985830550
  C        13.1298926989        0.2972906330       -4.0843202311
  H         5.7646307007        9.0287968941       21.8348428217
  H         5.9304680758       10.3255675109       21.0665264717
  C         7.7628419503        9.2936282987       21.7033862147
  H        18.1677686215        7.2193517575        6.2267254015
  H        18.7362699827        5.7499482506        5.5346818811
  C        19.8296427808        6.2801521022        7.2775471112
  H         2.6397963820        8.8883049660        1.1894986685
  H         3.0541936786        9.9614895923        2.3450320029
  C         4.3398401181       10.2028445509        0.7580120431
  S        13.5399652054        1.8917749604       -4.5989491518
  C        13.2624612936       -0.7109422282       -5.1170801264
  H         7.9873957052       10.2510186416       22.1519720117
  H         8.5699928515        9.1297597571       20.9258556384
  H         7.7866084846        8.5318459046       22.5394965779
  H        20.6286086305        6.7216834976        6.7793619262
  H        19.8241922512        6.6759823720        8.2988131403
  H        20.0614354705        5.1976713847        7.4096499359
  H         3.6534517534       10.9997677543        0.5691538617
  H         5.2202678310       10.4754226679        1.3491413653
  H         4.6626035459        9.6350293823       -0.1395537647
  C        13.8457730775        1.1810570904       -6.2354165685
  N        13.6892535612       -0.1978917681       -6.2636336098
  O        13.0923324555       -1.9011523909       -4.8918299741
  S        14.3663065739        2.0228141679       -7.6696056822
  C        13.9514136576       -0.8962674895       -7.4824899096
  H        14.4122026324       -1.8777059056       -7.2900867597
  H        14.7205856760       -0.4274177484       -8.0786450425
  C        12.6760179035       -1.0235999819       -8.3464227511
  H        12.2834371494       -2.0326613737       -8.6614309005
  H        12.8034390664       -0.3285148699       -9.2547160611
  H        11.8851647701       -0.5559390055       -7.7816132445
