352
 i =   121000, time =    60500.000, E =        99.5422241070
  H         9.6324767689        6.2231362539       32.4214586445
  C        10.7278119671        6.1567484314       32.4193152340
  H        11.2101282973        7.0198150083       32.9253706852
  C        11.3442288508        6.0281569181       31.0218367714
  C        11.1110190384        5.0758861694       33.4112584236
  C        10.4860785202        5.1829367770       30.1219777851
  H        11.5355164595        7.0119539683       30.4840270924
  H        12.3747100926        5.6323904825       31.1027556047
  H        10.2800046533        4.4896670774       33.7900372550
  H        11.9333331112        4.3823552473       33.0705532297
  H        11.6314658357        5.4696743921       34.2424856553
  C        11.0917479462        4.8768351689       28.8083300509
  H         9.5679855180        5.6842934682       29.9005349770
  H        10.1143991529        4.2875135189       30.5630859869
  C        10.4964911157        5.6273142260       27.7068297881
  H        12.2171468360        4.9938180926       28.7904960026
  H        10.9468259153        3.8508041793       28.4565334452
  C         9.2052362213        5.0266181653       27.1705586588
  H        11.2307904059        5.6482135286       26.8330853957
  H        10.3875517058        6.6547255203       28.0035200547
  C         8.1604011754        6.0118781882       26.6139609058
  H         9.3719354223        4.1543141961       26.5450862466
  H         8.7174824648        4.6486586758       28.1181005413
  C         7.0664584126        5.2769442179       25.8753912315
  H         7.6965648382        6.5617172696       27.4646254187
  H         8.6839308354        6.7030136895       25.9358378441
  C         6.6546632169        3.9357939120       26.5050387664
  C         7.4708530034        4.5262867652       24.6615963870
  C         5.8633352293        6.1961330771       25.6208937981
  C         6.7993764744        2.8252016692       25.7002416204
  C         6.2475906696        3.5149142172       27.7718073363
  C         7.3671467727        3.2275504092       24.4621928486
  C         8.0090344455        5.1193513260       23.4429249605
  H         6.2010705402        6.9443565991       24.8949313877
  H         5.4702662984        6.5902131698       26.5429295918
  C         4.6917893200        5.4619048587       25.0102937469
  S         6.2870366223        1.3265870156       26.3601219180
  C         5.9976316536        2.1806932481       27.8202841498
  H         6.2505649625        4.2405772712       28.4888147695
  C         7.7232732950        2.5799368393       23.3306772746
  H         8.1618490294        6.1998508518       23.4856026389
  C         8.3253522308        4.4826483328       22.2764685997
  H         4.9505069493        5.0124876800       24.0414250267
  H         4.5466099663        4.6068102074       25.6698292494
  C         3.2839831801        6.1564692065       25.0774807967
  C         5.6404593281        1.4375034392       29.0220276759
  C         8.1686346197        3.1867670361       22.1800893826
  H         7.5051780271        1.5578601629       23.4231239301
  C         8.7366852437        4.8513234574       21.0156672279
  H         2.5225711122        5.5455175543       24.5914702610
  H         3.3779106452        7.0610580831       24.4786153125
  C         2.8285958858        6.3277392790       26.5258798536
  C         5.7359235385        0.0131553566       29.2549246923
  C         5.2404718086        2.2005845524       30.2456455562
  C         8.5300510981        2.4098246787       20.9278016320
  C         8.8246790411        3.7193437116       20.2072713221
  S         9.1632336009        6.3283447731       20.3124862012
  H         1.9146086724        6.9119418484       26.4947562395
  H         3.4366097997        6.8816169559       27.2168657801
  C         2.3715250366        5.0890038535       27.2331880702
  N         6.1279869499       -0.8716548757       28.2620464200
  C         5.3642601308       -0.5787660947       30.4786376327
  C         4.8932252259        1.5862083728       31.4486646057
  H         5.1350910464        3.2995701910       30.2614767367
  C         7.3297197015        1.6225425260       20.4781080770
  C         9.8201882689        1.6348369616       21.0025294908
  C         9.0589580738        4.1503675902       18.9081327349
  C         9.3773978100        5.4958307575       18.8089361595
  H         1.7968809216        4.4622417551       26.5302264470
  H         3.1590085626        4.4591646705       27.5261551798
  C         1.2825240156        5.2756172491       28.2786936019
  S         6.1667207281       -2.3417821449       28.9767239698
  N         5.4795561499       -1.9442610457       30.4069980201
  C         4.9633354589        0.1493108220       31.6147097735
  H         4.5940267182        2.2079121213       32.3697516621
  H         6.6671635304        1.3542146844       21.2393452294
  H         7.6712184210        0.6287625323       20.1447103990
  C         6.4887258284        2.2208768318       19.3061033463
  H        10.1298719135        1.2155531812       20.1284939926
  H         9.7701005621        0.8353293954       21.7748909573
  C        10.9528238739        2.5132132852       21.4739407204
  H         9.0615544542        3.4664833131       18.0288249826
  C         9.6230799998        6.1630364054       17.4774388908
  H         0.7413210054        4.3065678499       28.4867107333
  H         0.5952285885        6.1049404185       27.9729389690
  C         1.7674151041        5.6324934091       29.6717408790
  C         4.6122126625       -0.5530914413       32.7361789522
  H         7.1148274584        2.4816982290       18.4432570593
  H         6.0654906877        3.1617790266       19.6356637955
  C         5.2775755987        1.3488908544       18.7673349597
  H        10.7343243221        3.0406210133       22.3582520109
  H        11.2207930889        3.2633316373       20.7402953540
  C        12.1623631959        1.6121381314       21.7905608270
  C         9.7605967073        7.5578784044       17.3318065867
  C         9.9090756820        5.3122763072       16.3413295705
  H         2.0521343271        6.6421218772       29.6936539635
  H         0.8371091839        5.6380165395       30.3697073225
  C         2.8436679892        4.7303409519       30.2519481301
  H         4.6320313668       -1.6244216470       32.5858578905
  C         4.2262919443       -0.2371489058       34.0357598002
  H         4.6570044978        0.9372705967       19.5569883864
  H         5.7406317652        0.5046758690       18.3001417848
  C         4.3163820753        2.0963264999       17.8437281250
  H        11.9480317012        0.8748267956       22.6297566747
  H        12.3833423477        1.0714725050       20.9122679309
  C        13.4098348953        2.3763833894       21.9640353739
  N         9.5517784651        8.4353021236       18.3516848105
  C        10.0019814314        8.1666205673       16.1659766112
  C        10.2253475233        5.9432506035       15.1612764966
  H         9.8991487504        4.2152407958       16.4344102575
  H         2.7342261714        3.7732014185       29.7133791013
  H         3.8549362500        5.1752916208       30.1314303803
  H         2.7302262588        4.4523280671       31.3207047159
  S         3.9962222561        1.3105978655       34.7034230862
  C         4.3732643659       -1.2816399718       35.0891017690
  H         4.0598305056        3.0919127599       18.2705605957
  H         4.8524605007        2.2684491645       16.8497560614
  C         2.9278162993        1.4609570118       17.6527149244
  H        13.2709224428        2.9242129066       22.9075842162
  H        13.3337921111        3.0786566859       21.2063740801
  C        14.6457617876        1.6120824338       21.8094476060
  S         9.7534156252        9.9843395532       17.8588641897
  N         9.9474105043        9.5506643280       16.3145688562
  C        10.1897828107        7.4442354260       14.9832252504
  H        10.5611465080        5.3477823081       14.3978109287
  C         3.9380838024        0.5292623910       36.3238666513
  N         4.0977422344       -0.7903628913       36.3199440272
  O         4.5568353068       -2.4987286112       34.7991837806
  H         2.2100103276        2.0709540835       17.1258094511
  H         2.4477717277        1.4665135094       18.5967251852
  C         3.0516914845       -0.0402329456       17.2069786285
  H        14.7263400343        0.8269036046       22.5713093792
  H        14.6774356872        1.0158831472       20.8612099724
  C        15.9426969112        2.5146769133       21.7993501506
  C        10.5718191517        8.1989496843       13.7562707467
  S         3.3627522983        1.1686423361       37.8493141279
  C         4.3027686291       -1.6223680728       37.5322902514
  H         2.9959265576       -0.2188929568       16.1490274660
  H         3.9889294031       -0.3558624958       17.5955112395
  C         1.8297860605       -0.8172924791       17.7561877666
  H        15.5771423135        3.5143201248       22.0929728165
  H        16.3645901246        2.7112946871       20.8102777825
  C        17.1729389255        2.1129169124       22.7131072609
  H        10.6546879151        9.2419267447       13.8603143003
  C        11.1265225001        7.7940681720       12.5387595317
  H         3.6242700618       -1.3561963388       38.3477614680
  H         4.0283846041       -2.6331597528       37.3100595016
  C         5.7521622506       -1.6510404522       37.9600553105
  H         0.9383658274       -0.4505904621       17.1687662467
  H         1.6681084880       -0.5245830124       18.7746573153
  C         2.0304904457       -2.3097504699       17.8428639005
  H        17.4478565222        1.0980834487       22.4984164336
  H        18.0458035338        2.7497832957       22.6601550263
  C        16.8072683303        2.2665760732       24.1301197491
  S        11.4049945595        6.1055872026       12.0472024250
  C        11.4178343737        8.8127878284       11.5697455142
  H         6.3032105088       -2.4829402666       37.4157038015
  H         6.2130328936       -0.7328295158       37.7045028761
  H         5.9236874206       -1.6365854718       39.0147328439
  H         1.2084780577       -2.9048853384       17.5207606620
  H         2.2254696609       -2.5776506769       18.8110733832
  H         2.7575179152       -2.6235315867       17.0703421693
  H        16.0584804076        1.4690774090       24.2924789397
  H        16.3968114538        3.2024197383       24.3553804817
  H        17.7243109506        2.0558282457       24.7159078453
  C        12.0995858694        6.8643980553       10.6302944581
  N        12.0266730518        8.2143442197       10.5407188903
  O        11.2716702966       10.0307238469       11.7026422567
  S        12.6681114183        5.9481332893        9.1985352486
  C        12.4809898032        8.8371498468        9.3551156996
  H        12.9924679718        9.6708847228        9.7554310153
  H        13.3696067462        8.3762923543        8.8719640006
  C        11.3615995406        9.1575335047        8.3939127888
  H        11.7243848225        9.1215650336        7.3711028500
  H        10.5805418844        8.4381779438        8.5943519309
  H        10.9850084278       10.1233064678        8.6327750114
  H         4.0458076524        3.5859240833       13.4202247519
  C         3.1563258966        2.8719150268       13.3093979747
  H         2.3654221488        3.1380779940       13.9160081237
  C         2.8609914978        2.7658752783       11.7793123703
  C         3.6653646794        1.6261982337       13.9805175953
  C         4.0486721760        2.8826535587       10.8476096762
  H         2.2183478730        3.5869787777       11.6085175538
  H         2.3185561894        1.8666515973       11.5433398252
  H         4.7506288904        1.4870746786       13.6989488155
  H         3.0761370733        0.7120090816       13.7535724656
  H         3.7060887995        1.7898468900       15.0345974255
  C         4.2574152447        1.6174640062        9.9502803240
  H         4.0026694521        3.8023634027       10.2114433857
  H         5.0019763198        3.0301287807       11.3874032200
  C         5.0989192623        1.6918378192        8.6756739621
  H         3.1867621961        1.2873283704        9.7134837770
  H         4.6431604725        0.7487277322       10.5426443279
  C         6.3612517433        2.6332797446        8.8694950951
  H         4.4672113623        2.0695912133        7.9077012366
  H         5.4329569508        0.6837177946        8.3226260962
  C         7.6448442341        1.9599158897        9.3757835750
  H         6.6594791391        3.0703715397        7.8993452009
  H         6.1451772745        3.4331502459        9.5730505886
  C         8.8965645007        2.7571913288        9.4227119933
  H         7.7987622553        1.0753792619        8.7294293443
  H         7.3519667000        1.5857144774       10.3880983093
  C         8.5748414016        4.1259644095       10.0606414593
  C         9.1980429808        3.4777763070        8.1533228010
  C        10.0385902830        1.9390965763       10.1327713672
  C         8.6940381460        5.2005605941        9.2280727375
  C         8.0263397295        4.4835956214       11.3484947932
  C         9.0930137780        4.7968907685        7.9675402062
  C         9.5924815094        2.8702894791        6.9795741952
  H         9.6141671499        1.3884296902       10.9754008289
  H        10.3376836944        1.1150988971        9.4449585033
  C        11.3238798995        2.8617690995       10.4116372561
  S         8.1160880903        6.6367519769        9.9724802750
  C         7.8455272227        5.8151862116       11.4994633952
  H         7.7147206499        3.7072617322       12.0819407630
  C         9.3505001297        5.4553258653        6.8384453290
  H         9.8198701294        1.7991718547        6.9701473570
  C         9.7380026291        3.4780677998        5.7909510886
  H        10.9116705365        3.7168587873       10.8282095269
  H        11.8726274838        3.1799342332        9.5142477302
  C        12.4375951732        2.2078954914       11.4002739937
  C         7.4102635631        6.5872579666       12.6975186834
  C         9.6569687332        4.8248323850        5.6480846150
  H         9.1962943055        6.5169674508        6.8533640967
  C        10.2568347226        3.1127728437        4.6163973819
  H        13.4618554476        2.6584041837       11.3508716901
  H        12.6545374964        1.0898802502       11.1430160128
  C        11.9259199610        2.3649452522       12.8173919684
  C         7.5127062734        7.9835980518       12.9589640503
  C         6.8230618439        5.7270074612       13.7987190752
  C        10.0954693594        5.5394758077        4.3672141138
  C        10.4403231695        4.1516226820        3.7216319408
  S        10.6251070498        1.5570939109        3.9371533907
  H        11.5833435027        3.4460414739       13.1352206856
  H        11.1731090094        1.6358737265       13.0550891020
  C        13.0550838920        2.0813378442       13.8626500800
  N         8.1054864794        8.9778941785       12.1296516694
  C         7.2035808088        8.5008532548       14.2478344349
  C         6.4886529848        6.2364729438       14.9874886705
  H         6.7568557853        4.6773137916       13.6576631796
  C        11.4264412262        6.3691141860        4.4393536938
  C         9.0785550048        6.3244855021        3.4962362913
  C        10.9729242185        3.7156867412        2.4823481991
  C        11.0291535196        2.3452581020        2.4565579638
  H        13.8256377123        2.8487496826       13.7658819215
  H        13.6315097057        1.1400981742       13.7059356775
  C        12.3757034005        2.1662481039       15.2858623879
  S         7.9574230791       10.3669295070       12.9264236027
  N         7.2285889215        9.8685758977       14.2733225476
  C         6.6727658509        7.6972878267       15.2435682013
  H         6.0008182547        5.6397924124       15.7574192033
  H        11.2112041889        7.3007418861        4.9338234969
  H        11.7559540819        6.6065424597        3.4540648484
  C        12.6191817174        5.5715992128        5.0128741155
  H         8.7119645816        7.1937925006        4.0015572282
  H         9.6125843664        6.7589534026        2.6825031506
  C         7.8213259874        5.5139916516        3.0678879730
  H        11.1518092906        4.5082383996        1.7068088444
  C        11.4050761390        1.5370297283        1.2075114909
  H        11.5539734848        2.9061260552       15.3141651889
  H        11.8244231170        1.1867984502       15.4297622013
  C        13.3178474301        2.3548274121       16.4668383320
  C         6.5364235857        8.2133302811       16.6109262827
  H        12.2782052441        5.0702155273        5.9135856762
  H        12.9050659739        4.7603417408        4.3336911995
  C        13.9341344893        6.3503880161        5.4494814037
  H         7.3464376744        5.1272290021        3.9996285216
  H         8.0236610209        4.7683838749        2.3677218303
  C         6.7917241785        6.4915926015        2.5596894687
  C        11.5758979745        0.1495199998        1.0896931600
  C        11.5967965037        2.2376800143       -0.1080973772
  H        14.0580004049        3.1227569032       16.2895753214
  H        13.9869678679        1.4972985770       16.3419327401
  C        12.6909731385        2.5073803448       17.8577047995
  H         6.8259628105        9.2827475449       16.6709438816
  C         6.2177675219        7.6621717276       17.8384962395
  H        13.7002173165        7.0584454797        6.2679760869
  H        14.4036808571        6.8564490910        4.6067237921
  C        14.9470414725        5.3437379049        5.9445609580
  H         6.7125170696        7.1343876601        3.4260894794
  H         7.2629776595        7.0685058640        1.7193900531
  C         5.4753147462        5.8021951485        2.2723090316
  N        11.2386929807       -0.7193983173        2.0997490600
  C        11.9043660455       -0.4834610485       -0.0964845182
  C        11.9670147593        1.6307861719       -1.3006704552
  H        11.4220226716        3.2820798319       -0.1468954020
  H        13.3972943249        2.7116025553       18.6359366262
  H        12.1064978705        1.5870744452       18.0387725061
  H        11.9516038157        3.3347869995       17.9975912094
  S         5.8125415185        6.0791221225       18.3166246232
  C         6.0873341155        8.6503484382       18.9221187654
  H        14.5271950345        4.7212081105        6.7748354340
  H        15.2075047289        4.6908758844        5.0745934561
  C        16.2021519815        5.9465870730        6.5830605113
  H         5.0081776238        5.3412107520        3.2049590839
  H         5.7022888528        4.9478510705        1.6024353191
  C         4.3392826735        6.5592494601        1.6095860598
  S        11.2797463399       -2.2053281936        1.4947936854
  N        11.8427149439       -1.8606609561        0.0375267321
  C        12.2031734924        0.1836654510       -1.2871024642
  H        12.0218045759        2.2100601757       -2.1432629755
  C         5.6257522434        6.6571224410       19.9724873811
  N         5.6535885064        8.0438830315       20.0692729320
  O         6.2202425405        9.8556788731       18.7330381186
  H        16.6683989300        6.5082229838        5.7293164249
  H        15.9407383724        6.5539991774        7.4265510267
  C        17.2266523806        5.0005239750        7.0836797783
  H         4.5733157780        6.6110029153        0.5466021738
  H         3.4007031099        6.0134418216        1.6920155644
  C         4.1915919983        7.9101244621        2.3735825461
  C        12.4172930103       -0.5577318665       -2.4437952171
  S         5.4633862866        5.7236361681       21.4485188221
  C         5.5851161386        8.7492445321       21.3835231637
  H        16.7237882151        4.4099751775        7.8947567452
  H        17.5364933436        4.2578196652        6.3187771387
  C        18.4210313840        5.7843687688        7.5293648514
  H         4.4385850440        7.7718641394        3.3807926356
  H         3.1398451636        8.1828180109        2.3027375910
  C         4.7884650676        9.2264231742        1.7672384226
  H        11.9755607064       -1.5009278264       -2.5170119944
  C        12.8430660827       -0.2560356570       -3.6958636314
  H         4.8352843298        8.2823047242       21.9433579299
  H         5.1674128348        9.7773452951       21.2647466286
  C         6.8306338185        8.8212947878       22.1937248223
  H        18.7575510258        5.4300775375        8.4780542946
  H        18.1180501315        6.7912631897        7.8071639400
  C        19.5180812713        5.9433452154        6.5034554811
  H         5.1055522166        9.8475771973        2.6549633633
  H         5.7843747903        8.9579169966        1.1922080429
  C         3.8578789025       10.0153980330        0.8996430507
  S        13.4522471237        1.2256323563       -4.2753840846
  C        13.0619129829       -1.3422673298       -4.7178075937
  H         7.7363811860        8.4572140580       21.6491732030
  H         6.7889348317        8.1601176782       23.0991906979
  H         7.1055856590        9.7762625034       22.4626254678
  H        19.2642897468        6.7524421676        5.7541688906
  H        20.4866495241        6.1136176499        6.9508359777
  H        19.6746135514        5.1363818693        5.8604892205
  H         2.9511136900       10.2718993267        1.4412848215
  H         4.2671615469       10.9914003800        0.5817035169
  H         3.5522578276        9.4847351874       -0.0275070410
  C        13.7317072949        0.5305528785       -5.8118941162
  N        13.5123324927       -0.7823098260       -5.8569240134
  O        12.6025076354       -2.4782117718       -4.5953373321
  S        14.4990542538        1.4443651189       -7.1460940380
  C        13.7573374338       -1.5644825026       -7.0009259071
  H        13.9473574045       -2.5831800216       -6.6300750188
  H        14.6794291453       -1.1317667971       -7.4512239449
  C        12.5996710421       -1.3707566493       -8.0909117138
  H        12.4616137871       -2.3068860892       -8.6312706907
  H        12.8179675789       -0.4749866931       -8.7076557528
  H        11.6426630166       -1.1631348803       -7.6422876268
