352
 i =    28100, time =    14050.000, E =        99.8743986471
  H        10.5588176329        4.5410927901       31.8620914017
  C        10.7847529137        5.4529570622       32.3723100896
  H         9.8046110487        5.6907777563       32.8647913623
  C        11.2466026767        6.4565567746       31.3166717631
  C        11.8354000604        5.1081059850       33.4264214207
  C        11.7294794991        5.8343168510       29.9391026381
  H        10.3603104190        7.0291656197       31.0861904654
  H        11.8959066700        7.1601716709       31.7781128914
  H        11.5553784227        4.5114133094       34.2151343723
  H        12.7561836572        4.6164022807       33.0041374983
  H        12.3162173939        5.8883382771       33.9111178286
  C        10.5995846434        5.5947969966       28.9040379416
  H        12.2803773268        4.8863927666       30.0989940084
  H        12.3990431606        6.5311198347       29.3926961956
  C        11.1802307707        5.3571998071       27.4879740607
  H        10.0151427335        4.7689546906       29.2279854225
  H         9.9680549982        6.3882639540       28.8434630326
  C        10.2058055884        4.4396061567       26.6290937352
  H        12.1339980878        4.7956360074       27.5949271211
  H        11.3413661137        6.2894483324       26.9102105223
  C         8.9919809551        5.3158327603       26.2051832898
  H        10.6295231588        4.1257376062       25.7305010041
  H         9.9788849799        3.5556089164       27.2345109962
  C         7.7746775880        4.6091235878       25.5794883825
  H         8.5374432164        5.8176814629       27.1297980379
  H         9.3838942372        6.0989036691       25.5293399755
  C         7.4626334200        3.3084539782       26.2982822848
  C         8.0957674589        3.9130961174       24.3377229773
  C         6.5246008600        5.5380278560       25.3967365263
  C         7.6993283474        2.2032937408       25.5269725394
  C         6.8049308035        2.9329392328       27.4406089567
  C         8.1714329991        2.5721369051       24.2720721089
  C         8.6567046428        4.5948165091       23.2751032457
  H         6.7458863200        6.2513073513       24.6406469936
  H         6.3487341212        6.1400547302       26.2308137889
  C         5.2135722335        4.8297936156       25.1193977291
  S         7.1464872576        0.6866834637       26.2778491741
  C         6.6365374565        1.6092596803       27.6022547678
  H         6.4443246564        3.6947224142       28.1505061575
  C         8.5868094412        1.9448647697       23.1167180374
  H         8.6286294720        5.6843396395       23.2362465901
  C         8.9809874646        3.9496057791       22.0833363413
  H         5.3331703373        4.1607194842       24.2399146853
  H         5.0198857539        4.0860442828       25.9557328170
  C         4.0482673286        5.7860040013       24.9296372142
  C         6.1056294471        0.9693675496       28.8199927958
  C         9.0102683761        2.6406424425       22.0019929169
  H         8.5111165491        0.8402999624       23.0635718617
  C         9.3467621855        4.3008000561       20.7736480180
  H         3.2933245007        5.3456891726       24.2770300851
  H         4.4023712416        6.8146685541       24.4666673657
  C         3.3146110726        6.0301203525       26.3196954460
  C         5.9883853979       -0.4285973469       29.0459442799
  C         5.4919623646        1.8685638299       29.8428170779
  C         9.4322484852        1.8599140849       20.7092789850
  C         9.6192288312        3.2075938475       19.9957121709
  S         9.4633082115        5.7947187949       20.0190189427
  H         3.2008189445        7.0765913621       26.5555910112
  H         3.9292689341        5.5986882864       27.0586308773
  C         1.9244633334        5.2645021535       26.3996189058
  N         6.4442183369       -1.4092193419       28.1859945906
  C         5.6633815409       -0.8861778915       30.2924621317
  C         5.1236049825        1.3515417157       31.1082361125
  H         5.2919952419        2.9213994282       29.6107636427
  C         8.2742311225        1.0363039962       20.0393286300
  C        10.7948724076        1.1955736953       20.9864200905
  C         9.9230481626        3.6554243091       18.6777566299
  C         9.8724250523        5.0218920437       18.5424320172
  H         1.3908896015        5.3083200141       25.4580482480
  H         2.2554604007        4.2126084319       26.5290518418
  C         1.0156885985        5.7535113025       27.5967292205
  S         6.3729671854       -2.7731496775       29.0061363557
  N         5.9566996238       -2.2407347331       30.4485296126
  C         5.2119043599       -0.1247324938       31.4324084068
  H         4.6607957836        2.0830257472       31.7894477575
  H         8.1124645587        0.3323794539       20.7436191793
  H         8.5240374998        0.4940917671       19.1608041431
  C         7.0268182248        1.9340102823       19.8178512282
  H        11.0624865804        0.6135667697       20.0065321521
  H        10.7297379062        0.4797026612       21.7435770385
  C        11.9732869879        2.1070589365       21.1273986835
  H        10.0792684168        2.8635148619       17.9209984469
  C        10.0835011042        5.7859766658       17.2493538889
  H         0.1668194855        5.0583333187       27.6855687933
  H         0.5995127793        6.7686163565       27.4544836948
  C         1.7287674969        5.7227345377       28.9489389242
  C         4.9651850103       -0.7756177023       32.6635891669
  H         7.2181916764        2.6830106429       19.0495074141
  H         6.7002884910        2.5148222916       20.7245562721
  C         5.8653813661        0.9669719692       19.5137757155
  H        11.8289129597        2.6766745584       22.0570053711
  H        12.1501413559        2.8347847183       20.2462776504
  C        13.2412125609        1.1823468663       21.2217839660
  C        10.1537619663        7.2047005709       17.0996704806
  C        10.4152129287        5.1012782468       15.9761282152
  H         2.5596098794        5.0704419936       29.0359399507
  H         2.0317347740        6.7153819364       29.1237929990
  C         0.8365900350        5.2724108270       30.1379786821
  H         5.0548558489       -1.8685652559       32.8031811278
  C         4.6580236603       -0.2860843032       33.9462409014
  H         5.6984430292        0.3799946708       20.4137338449
  H         6.1780997470        0.2575804353       18.7276427821
  C         4.5996972871        1.7925464177       19.1707923921
  H        13.1088828389        0.3456570795       21.9458531627
  H        13.3261807387        0.5460130928       20.2928132173
  C        14.5928567721        1.9105833618       21.5234848971
  N        10.0292283199        7.9915034277       18.2038784079
  C        10.6023826356        7.8831903564       15.9714122343
  C        10.8724114374        5.7553173225       14.8559112475
  H        10.1875843500        4.0312242688       16.0620590504
  H         0.0279832709        4.6476855216       29.8675723754
  H         1.4238848027        4.6545214018       30.8471284184
  H         0.4939135626        6.2428598813       30.5927404930
  S         4.2820348283        1.3099626870       34.4161373860
  C         4.5939879816       -1.2813117615       35.0417588752
  H         4.5444981876        2.6483227574       19.8723790256
  H         4.7650687253        2.1909724338       18.2264033183
  C         3.2920279227        1.0179397883       19.2388001114
  H        14.8804298666        2.8645491504       21.0045894600
  H        15.3690031250        1.2415653740       21.3040468578
  C        14.6292442242        2.0996759130       23.0778139381
  S        10.2481186793        9.5699810812       17.6749967418
  N        10.7243983310        9.2637205175       16.1359829517
  C        10.8634037067        7.1984019894       14.7337102894
  H        11.1835379593        5.1835313999       13.9475670462
  C         4.1810805325        0.7718843351       36.0625630784
  N         4.2407887556       -0.6038046917       36.1799812986
  O         4.9986591219       -2.4860676336       35.0190332431
  H         2.4973527162        1.7400674341       19.3216205801
  H         3.1989745268        0.4118766966       20.0878491253
  C         3.0967891868       -0.0157247323       18.1695335077
  H        13.8361611307        2.7775486841       23.3803660837
  H        14.5020537846        1.1720890773       23.6459036859
  C        15.9164297555        2.8175718139       23.5868241960
  C        11.1760015208        7.9524219047       13.6178752762
  S         3.9926823828        1.7422426801       37.4649127348
  C         4.2049451153       -1.3204604666       37.4855651068
  H         2.7983114266        0.4355926581       17.2079346771
  H         4.0360507433       -0.5677842502       18.0609313566
  C         2.0886680703       -0.9853161356       18.5761091135
  H        15.8792931010        3.0156406028       24.7075748475
  H        16.0829239265        3.7616315182       23.0191897680
  C        17.1202572198        1.9161372496       23.4143139599
  H        10.8226049991        8.9835579858       13.6817747838
  C        11.6728449553        7.6849921974       12.3722828523
  H         3.4276401023       -0.9982643240       38.0789242041
  H         3.7895763148       -2.3047016737       37.3605432980
  C         5.5495650698       -1.4582765045       38.1105314249
  H         1.1007777315       -0.4929996380       18.8230711103
  H         2.3544844989       -1.5496796803       19.4636311155
  C         1.8730596507       -2.1224125443       17.4774311042
  H        17.7392819614        2.0360414700       24.3246988474
  H        16.7770745862        0.8759346547       23.3446524161
  C        17.9199771358        2.2649051200       22.1961993081
  S        12.3535680891        6.2167441488       11.8283212388
  C        11.5656942196        8.7570321934       11.3243752386
  H         6.3482685305       -1.7610776798       37.3768371199
  H         5.9813761971       -0.5628735477       38.5762796349
  H         5.3598568640       -2.2413869744       38.9122370148
  H         1.3704726241       -1.6325517228       16.5831289108
  H         1.2586824119       -2.8364255407       18.0096956123
  H         2.8364849647       -2.6705849580       17.3805512718
  H        17.2343322044        2.2524390367       21.3649448236
  H        18.7004455126        1.5428228796       22.1769509222
  H        18.3620486272        3.2531613848       22.1815658942
  C        12.5557555219        7.0269502716       10.2694033336
  N        12.1771760292        8.3235612224       10.2366200171
  O        11.1503319156        9.8968898259       11.4530552623
  S        13.5951674465        6.4220217370        9.0174164211
  C        12.2161602181        9.0891949619        8.9909580531
  H        12.3675287700       10.1307621958        9.1661588948
  H        13.1012553842        8.7447984200        8.3748887746
  C        10.9209884505        8.8185061874        8.2103483579
  H        10.5389549397        7.8248842302        8.5508196933
  H        10.2902055905        9.6149030336        8.4849975982
  H        11.0879136153        8.9041037419        7.1132259685
  H         4.7139768131        1.0164407889       12.7625528560
  C         4.3195547075        1.9861797001       12.8511574360
  H         5.1756969678        2.6543135418       12.7909272669
  C         3.3640963767        2.2664788699       11.6607698763
  C         3.7419566553        1.9525270665       14.1889393915
  C         4.0889019470        2.5264931577       10.4076233455
  H         2.6544480659        3.0551992064       11.9575939591
  H         2.7553494518        1.3748049355       11.4457952013
  H         3.0305716312        1.1145083003       14.1618566687
  H         3.2234403830        2.8188011589       14.4660100300
  H         4.5554069327        1.8267210341       14.9153126488
  C         4.6964949607        1.2841394732        9.7738340418
  H         3.4402176712        3.0095875081        9.7376561733
  H         4.7847994808        3.3153108489       10.5255346900
  C         5.5091824042        1.4462290937        8.4777246187
  H         3.9800665264        0.4394135824        9.8670555807
  H         5.5113297859        1.0457051520       10.4408881013
  C         6.8082728849        2.3233896037        8.6880339980
  H         4.8334621437        1.9190416709        7.7253779206
  H         5.6544607340        0.4440876805        8.0940693663
  C         8.1073327944        1.6529923555        9.1172654050
  H         7.0628788636        2.8911579364        7.7470388567
  H         6.5476805912        2.9948654187        9.4410704077
  C         9.2914007087        2.6033422208        9.3587571984
  H         8.3498035825        0.9586988601        8.3048522997
  H         7.9782153923        1.0409853631       10.0509837916
  C         8.8792359845        3.8495882725       10.0865853314
  C         9.5886394713        3.3833590244        8.0884629158
  C        10.5343898548        1.8998822099        9.9728201409
  C         8.9885646397        4.9775736775        9.2916500529
  C         8.4840442480        4.1634266823       11.3750743841
  C         9.4387768897        4.6894573936        8.0390752658
  C         9.8703137030        2.8475667138        6.8606857909
  H        10.1562138341        1.2226977508       10.7520389349
  H        10.9480949353        1.1761993839        9.2513943358
  C        11.7301154413        2.6824903496       10.4318501700
  S         8.3710785065        6.4601158226       10.0069244146
  C         8.1884562086        5.4969296642       11.4702835560
  H         8.5094338743        3.4106918464       12.0993650102
  C         9.7225095799        5.3818022355        6.8843734188
  H         9.8422676132        1.7841788150        6.8504185583
  C        10.1726434056        3.4731745050        5.7136666720
  H        11.4397955569        3.5726718647       10.9966489399
  H        12.3505595834        2.9259083990        9.5954533353
  C        12.5656333952        1.9003067779       11.4286937259
  C         7.7291263846        6.1474912124       12.7648263083
  C        10.1024701749        4.8019563354        5.6396673276
  H         9.6717890027        6.4875840749        6.8468189170
  C        10.6194593626        3.1113980647        4.4749256416
  H        13.5515951809        2.4273250187       11.3693991234
  H        12.7841789530        0.8189506560       11.1400231589
  C        11.9338728618        1.9428762975       12.8853565947
  C         7.8852065714        7.5005833378       13.0974387805
  C         7.1194275915        5.3029727860       13.8304824391
  C        10.3835708702        5.5502422833        4.4229863256
  C        10.6836375388        4.2308831215        3.6827497764
  S        11.1438476265        1.7081423620        3.7330449107
  H        11.4523959143        2.8901618750       13.0894447302
  H        11.1213540139        1.2658401165       12.9330827783
  C        12.8954557594        1.4704455420       13.9700252438
  N         8.1944907740        8.5612256529       12.2166580990
  C         7.4994299172        7.9798725857       14.3527905664
  C         6.8259375735        5.7282164466       15.1144824951
  H         6.8634034269        4.3445006604       13.4926861888
  C        11.7137157616        6.4195106226        4.5758688862
  C         9.1127084802        6.3833043673        3.9590790906
  C        11.0797933788        3.8662542817        2.3524536016
  C        11.4623208039        2.5386879299        2.2106051699
  H        13.3042184586        2.2782247131       14.4345938667
  H        13.7155246850        1.0824877813       13.3725400623
  C        12.4944416211        0.5525327740       15.0747524376
  S         8.1006896295        9.9606405615       13.0538586806
  N         7.6495728333        9.3841182199       14.4701544436
  C         7.1496447371        7.1557043227       15.4650526403
  H         6.1975982323        5.1091861881       15.7275679667
  H        11.5802331291        7.3394382190        5.2054702085
  H        12.0486599840        6.7551314698        3.5920723116
  C        12.9890454672        5.5912952268        5.0754709068
  H         8.7816816666        6.7942076725        4.9091108760
  H         9.3481997511        7.2498311634        3.3530262140
  C         7.9815264921        5.6042184570        3.3787892267
  H        11.3119142044        4.7068020227        1.6795912385
  C        11.8740393620        1.8056820943        0.9610573663
  H        11.5124523350        0.2170031286       14.8611086077
  H        13.2084585827       -0.2125255721       15.0699155640
  C        12.2388555994        1.2660303921       16.3991541168
  C         6.7725818658        7.7838104766       16.7086333555
  H        12.7164948107        5.3375009321        6.0879625690
  H        13.2142921413        4.6704741865        4.4478163902
  C        14.2579313062        6.4480213466        5.2017578791
  H         7.7149253661        4.7699733326        4.0739487440
  H         8.3775009512        5.1660801570        2.4633850880
  C         6.8134649462        6.4855388549        3.1469884303
  C        12.1036345987        0.4116380546        0.7863927793
  C        12.1265999983        2.5907737150       -0.2754751933
  H        11.5082556693        0.7293897129       17.0541596803
  H        11.8862470009        2.2751012813       16.1791922938
  C        13.4956371450        1.6038504373       17.2353122089
  H         6.7395888770        8.8142893109       16.7285175124
  C         6.4092336026        7.2747202036       17.9303288834
  H        14.0085052151        7.0998664206        6.0584388446
  H        14.2407224939        6.9939708913        4.2697536101
  C        15.5173591988        5.5278967781        5.3746411146
  H         6.4043688356        6.8520685674        4.1023226490
  H         7.1044824808        7.4106065049        2.6434865676
  C         5.7358168350        5.7604589617        2.2980779972
  N        11.8937713590       -0.5480651158        1.7385914923
  C        12.4574925681       -0.1719090662       -0.3781015086
  C        12.3946642859        1.9984057471       -1.4658730133
  H        12.1575960030        3.6142140127       -0.0928785494
  H        13.2797347465        2.1104101510       18.1956200528
  H        14.1385269061        2.0946570576       16.6199596355
  H        13.9777291624        0.7008122286       17.5183030775
  S         6.3361228156        5.6084910220       18.2841913460
  C         6.3949577057        8.1644270893       19.0420883896
  H        15.3003122027        4.7169322793        6.0155481435
  H        15.7480834510        5.0893540135        4.4309988240
  C        16.7343449545        6.2697531944        5.9583000541
  H         5.0690801622        5.1635952202        2.9630608898
  H         6.1670106657        5.0400946237        1.5734879162
  C         4.7690896533        6.6145792581        1.5050141605
  S        12.1351654215       -2.0711939732        1.1517761356
  N        12.6002664785       -1.5623642078       -0.3353201560
  C        12.5869055264        0.5470197383       -1.6117727681
  H        12.5938313017        2.6165576860       -2.3014385085
  C         6.0059887525        6.1194234863       19.9320993330
  N         6.1207970429        7.4719625008       20.1431828304
  O         6.5100955993        9.4006927716       18.9169599104
  H        17.2218094886        6.9225393891        5.2281276811
  H        16.2310500235        6.9686175875        6.5834953977
  C        17.5811545845        5.2716312154        6.7551170511
  H         5.1982753015        6.9546615030        0.5585003246
  H         4.0977827692        5.8820992008        1.1060023609
  C         3.9427897750        7.7451115536        2.2051679535
  C        12.9775742461       -0.1449759942       -2.8188000903
  S         5.7981005160        5.1426483582       21.3408279920
  C         5.9277165238        8.1365562938       21.4357139348
  H        17.0437029276        4.8590610887        7.5628780082
  H        17.7898497039        4.4686950059        6.0843326157
  C        18.8136208690        5.8794529974        7.3465330177
  H         4.1312148224        7.7262056129        3.3045000529
  H         2.8241649012        7.7803838368        2.0404158446
  C         4.5192114733        9.0756977613        1.8067411754
  H        12.6604171023       -1.1658921385       -2.8283859600
  C        13.4765781849        0.2943750245       -4.0298429329
  H         5.2349429827        7.5518297784       22.0678440883
  H         5.3270446978        9.0646415686       21.2519108508
  C         7.2850925647        8.4940266630       22.0658995649
  H        19.1551705982        5.1743698040        8.1053180658
  H        18.5550228669        6.7485986237        7.9762951923
  C        19.8443463868        6.2640011499        6.4151497466
  H         4.3215249825        9.8833627859        2.5114527009
  H         5.5828433631        9.0181843157        1.7350840611
  C         3.9249726229        9.4800783947        0.4354860826
  S        13.9672023214        1.9077898364       -4.4402191868
  C        13.6375660204       -0.6915225036       -5.1206163397
  H         7.6839304955        7.6555470244       22.6798542296
  H         7.0505172309        9.3714213231       22.7199711518
  H         8.0722727189        8.7917590091       21.4185124241
  H        19.5220163609        6.8043342762        5.5609648595
  H        20.6472610245        6.8488826877        6.8660432206
  H        20.3619624221        5.3595343958        6.1654316093
  H         3.7566518760        8.6257471195       -0.3034725130
  H         2.9742918033        9.9044707079        0.6916945301
  H         4.4210017127       10.3049406035       -0.1496272794
  C        14.3526580331        1.2679427330       -6.0665871742
  N        14.2952244848       -0.1249373311       -6.1691880669
  O        13.2465653069       -1.8362042059       -5.0899502968
  S        15.1178247047        2.2355101989       -7.2552189056
  C        14.5952135329       -0.8832957647       -7.3625992475
  H        14.9823572045       -1.8895194584       -7.1013098713
  H        15.3576837880       -0.2563772985       -7.9311608546
  C        13.4498364020       -0.8125252036       -8.2552362286
  H        13.3617983728        0.1764632016       -8.5619683347
  H        12.5515856232       -1.1469186777       -7.8031089034
  H        13.5727127987       -1.3693589436       -9.2100413449
