352
 i =    25000, time =    12500.000, E =        97.0343214225
  H        10.6243664922        4.8743754699       31.3530268192
  C        10.8096306467        5.7498438298       31.8633352570
  H         9.7847596994        6.0671999817       32.0735390415
  C        11.4379137394        6.7475353285       30.9159360705
  C        11.5929348711        5.5889560337       33.2118220852
  C        11.8289924944        6.0836971453       29.5778039326
  H        10.7283200239        7.5881427339       30.8987032793
  H        12.3597594383        6.9413978015       31.3900492709
  H        11.0814603136        4.8490441048       33.8960312295
  H        12.5622776458        5.2077797936       32.9771947731
  H        11.4897608576        6.4597885641       33.8387136308
  C        10.5410744839        5.8337278065       28.6678776620
  H        12.1932709575        5.0850326484       29.8565076350
  H        12.6156093811        6.6341111546       29.0649774310
  C        11.0560265424        5.5731455452       27.2352472430
  H         9.8125854843        5.0638384238       29.0434637930
  H         9.9465487625        6.7023550864       28.6726328845
  C         9.9327141622        5.0310201138       26.2564778918
  H        11.9793815395        4.9906268581       27.1848268671
  H        11.4332213687        6.4314700768       26.8359227247
  C         8.6693364327        5.9093853434       26.1703070555
  H        10.3825111419        4.8088406572       25.2798245566
  H         9.6621879964        4.0649194824       26.5767294277
  C         7.5430765335        5.1786256751       25.5080854802
  H         8.3077554551        6.1511754254       27.1078353898
  H         8.9160668501        6.8171479355       25.5949232732
  C         7.1893286340        3.7450258746       26.1716118015
  C         8.0388784738        4.4827553958       24.2879134118
  C         6.2586620314        6.0656690279       25.2827751101
  C         7.3724552449        2.6693734655       25.3068180206
  C         6.5656213566        3.3336065144       27.3458978908
  C         7.9006342653        3.1288492607       24.1507362727
  C         8.5227968129        5.0783756567       23.1788769998
  H         6.6375480746        6.8467015661       24.6348318570
  H         6.1432381425        6.5804922988       26.2174177357
  C         5.0607470376        5.3328587473       24.6490562270
  S         6.8307045471        1.1144972837       25.9044333066
  C         6.4454042273        1.9144365706       27.3982521516
  H         6.2073674034        4.0625622192       28.0404503967
  C         8.2328042058        2.5578327296       22.9486375200
  H         8.4167018202        6.1552647492       23.1507544834
  C         8.7498532745        4.5216851425       21.9392027877
  H         5.2864575808        4.8390170010       23.7102278898
  H         4.8015247566        4.6159325211       25.4454217573
  C         3.9229769139        6.1623196904       24.2144091025
  C         5.9764403861        1.2133159669       28.6019018384
  C         8.6473569351        3.2141628481       21.7384065302
  H         8.1440982511        1.4766188472       22.8698624493
  C         9.1101038100        4.9144235119       20.6621243011
  H         3.3437777322        5.6269806453       23.4372313233
  H         4.3462912540        6.9738098604       23.7378983133
  C         2.8794740370        6.6652135910       25.2246478162
  C         5.9782333493       -0.1849568279       28.8740259773
  C         5.6375432942        2.1155520482       29.7993415599
  C         9.0389200796        2.4581262342       20.5149696179
  C         9.2259672726        3.8052196793       19.7821448401
  S         9.4082659541        6.4596079017       19.9011713555
  H         2.3411693619        7.4805848691       24.7914133971
  H         3.3760047917        7.0597546965       26.0809292492
  C         1.8873430874        5.5605167066       25.6210728994
  N         6.2805671969       -1.2404919895       27.9969280382
  C         5.6959339622       -0.6591382336       30.1503851090
  C         5.3355321427        1.5972642774       31.0517638957
  H         5.5778011927        3.1656424564       29.6160848830
  C         8.0237220730        1.5876695662       19.8377204925
  C        10.3487581123        1.6962968068       20.5512322861
  C         9.4224500750        4.2555799609       18.4566105087
  C         9.5432948161        5.6241382373       18.4089917796
  H         1.1572918476        5.4832192999       24.8526232746
  H         2.4643860310        4.6641221289       25.5788443534
  C         1.2718632258        5.7334875931       26.9665063086
  S         6.2854378485       -2.6104275573       28.7735183986
  N         5.8029578953       -2.0627409662       30.2522462384
  C         5.3497802734        0.1172652781       31.3270347242
  H         5.0864737326        2.2797061584       31.8472129980
  H         7.7230901297        0.8126441576       20.5655408527
  H         8.3164526982        0.9339343277       18.9865802033
  C         6.7384287766        2.2760472400       19.5218652960
  H        10.6490277435        1.2841185277       19.5251068492
  H        10.2178111083        0.7360509333       21.1268813866
  C        11.5737608110        2.4495407810       21.0793132480
  H         9.5661277402        3.4698769098       17.6734382004
  C         9.9695764315        6.3013628046       17.1248435550
  H         0.2824323001        5.1872454597       26.9778553564
  H         1.0294038567        6.8254362241       27.0825335800
  C         2.1295689819        5.3804212372       28.2504402233
  C         5.2276496175       -0.6388796637       32.5541264767
  H         6.8765885488        2.9911477831       18.7551564548
  H         6.4148454343        2.7856797766       20.3693991724
  C         5.6492868844        1.3132041926       19.0787824665
  H        11.3246623506        2.7058697574       22.1540354668
  H        11.8051997003        3.3952663563       20.6334474953
  C        12.7860528098        1.6228968125       21.1491678387
  C        10.0604383593        7.7062368998       16.9367149502
  C        10.1094612810        5.5088582607       15.8836306045
  H         2.2972854540        4.3012589547       28.3677269997
  H         3.1799839154        5.7549281911       28.1424825602
  C         1.6012789692        6.0128170562       29.5702133636
  H         5.3117332717       -1.7325860153       32.5442173132
  C         5.0020690733       -0.1263816701       33.8125972122
  H         5.4719624035        0.5164314198       19.8464145441
  H         6.0932256219        0.7500512293       18.3099421703
  C         4.3552392032        1.9564042574       18.7051884074
  H        12.5933433589        0.8302162151       21.8580545774
  H        13.1199630928        1.1133789050       20.2193181217
  C        13.8958084735        2.5100050456       21.6651376843
  N        10.0057025858        8.6633447621       17.9468073942
  C        10.4141458487        8.2215414086       15.7184942956
  C        10.3872457526        5.9986906521       14.5945957852
  H        10.0722528350        4.4219478777       15.8835378330
  H         0.6756460773        5.4491742887       29.7565995360
  H         2.3099149858        5.8359457769       30.3312096204
  H         1.4576919182        7.0734100340       29.4224106170
  S         4.6188919578        1.5179224140       34.2823841701
  C         4.9507618548       -1.0946623754       34.9176179344
  H         4.3789555309        2.8916010123       19.3489581369
  H         4.2967304212        2.3040616518       17.6864077611
  C         3.1617956048        1.0791558372       18.9777149177
  H        13.6005238092        3.1449208538       22.4868121769
  H        14.0669292404        3.3884470268       20.9921027492
  C        15.0922957106        1.7832818918       22.2629994446
  S        10.2295948322       10.1318739706       17.2727722419
  N        10.5832759392        9.6428371228       15.7901068696
  C        10.6223383109        7.4665918892       14.5070267188
  H        10.5739418056        5.3546908069       13.7441783062
  C         4.5206683480        0.8790991390       35.9487792301
  N         4.6439401331       -0.4529608336       36.1407956101
  O         5.2950712150       -2.2606060593       34.7331555759
  H         2.3460710819        1.7876964041       19.0287068644
  H         3.3920464200        0.6610112747       19.9524976331
  C         2.9629631888       -0.0117355780       17.9082335835
  H        14.6999064263        0.9465971196       22.8329910288
  H        15.6820474688        1.2898482883       21.4652505114
  C        15.9243039633        2.6352242379       23.2207103497
  C        10.9679304784        8.1186899463       13.3331814091
  S         4.4814354541        1.8368961828       37.4218903146
  C         4.7102128569       -1.1798723079       37.3549755377
  H         2.0152101073        0.2639418743       17.3265738356
  H         3.7988320314       -0.1272153775       17.1824814113
  C         2.6062612671       -1.3517942286       18.5323552132
  H        15.4074016939        2.7330628647       24.1693806372
  H        15.9368593482        3.6805258470       22.9141701668
  C        17.3364044612        2.1091358203       23.3592282856
  H        10.8593136372        9.1833213658       13.3436553738
  C        11.4071905522        7.7053012731       12.0913229346
  H         3.9720064806       -0.8962149402       38.1647113012
  H         4.3376100399       -2.1915011743       37.1462810704
  C         6.1856679555       -1.4459861544       37.8034179580
  H         1.5291499807       -1.4232089712       18.8880191612
  H         3.1525817716       -1.5095737619       19.4887203651
  C         2.7482741297       -2.5175822864       17.5154460119
  H        17.7393859751        2.5045844740       24.3038412628
  H        17.3604536281        1.0044521094       23.4486653326
  C        18.3358806640        2.4370429988       22.2157190843
  S        11.8949397953        6.0943393225       11.7075321199
  C        11.7124530092        8.6635554943       10.9865409226
  H         5.9755658905       -1.8362621633       38.7319562183
  H         6.7540237899       -2.0326578819       37.0956270219
  H         6.7032575255       -0.5045125443       38.0317527771
  H         2.1402029051       -3.3112028706       17.8787066525
  H         3.7609619962       -2.8814529962       17.3528675898
  H         2.4863624759       -2.3162368256       16.4996990650
  H        17.8309071634        2.3585842505       21.2347699309
  H        19.0930126045        1.6609964957       22.1202633753
  H        18.6790976758        3.4765608651       22.3848474283
  C        12.6854853760        6.8074065771       10.2572360721
  N        12.5233035385        8.1119285460       10.0754383248
  O        11.2881749512        9.8089209395       10.9943825311
  S        13.3032960966        5.7599846193        9.0060722497
  C        12.8720585258        8.8135186677        8.8310223529
  H        12.8751730056        9.8422420534        9.1326152960
  H        13.8354930059        8.4064483484        8.5238622447
  C        11.7989058928        8.5610035276        7.7187106205
  H        11.2054715629        7.8121604264        8.0432283696
  H        11.1746200500        9.4462797051        7.6656290390
  H        12.2917675739        8.4178779410        6.7566696317
  H         4.8684187907        1.4429545634       13.1211216641
  C         4.1571536114        2.2544287463       13.1416233495
  H         4.8735376125        3.1220194345       13.1291327012
  C         3.1964174668        2.4292481950       11.9328877853
  C         3.3810421060        2.2564370081       14.4451022888
  C         3.9443387155        2.6346451144       10.6755202595
  H         2.6410274018        3.4090318355       11.9887362821
  H         2.6001825862        1.4900731419       11.9033326841
  H         2.8872317859        1.2391702727       14.4517031820
  H         2.6692110374        3.0556938305       14.6000634108
  H         4.0779036006        2.3290451961       15.2627275548
  C         4.4779515491        1.3846416308       10.0474311724
  H         3.4620715434        3.2148533705        9.9039199514
  H         4.8237293007        3.2146818341       10.8573021403
  C         4.9979539819        1.6473308810        8.6747508544
  H         3.8148727021        0.5241167417        9.9881075551
  H         5.1739839018        1.0533669770       10.8006227964
  C         6.3063235003        2.5667532160        8.5264109600
  H         4.2261232826        2.1688411105        8.0765009239
  H         5.0692673830        0.6383940832        8.2141834942
  C         7.6197147771        1.8746247587        8.9818298904
  H         6.4957161602        2.7970710867        7.4520533760
  H         6.1988597292        3.3947237870        9.1496913765
  C         8.8584798903        2.8230635072        9.2198097095
  H         7.7880830746        1.0300819872        8.3632187284
  H         7.4703202344        1.3821350444        9.9543959381
  C         8.5574007085        4.1772549141        9.8750107316
  C         9.3930491810        3.5007090852        8.0077406202
  C         9.9240200510        2.0043659144        9.9865235734
  C         8.9759617024        5.2714637681        9.1296285271
  C         7.9831357277        4.5889346536       11.1213009937
  C         9.4844658598        4.8101486551        7.9119096283
  C         9.9283393891        2.8889718028        6.8761261102
  H         9.5237298753        1.4668697474       10.8865649810
  H        10.2921599870        1.2467063071        9.3608674342
  C        11.0536738900        2.8166183173       10.5072902126
  S         8.7377280751        6.7940446983        9.9318948571
  C         8.0750025577        5.9283375304       11.2908207199
  H         7.7070389033        3.8385252200       11.8784369337
  C        10.0629988297        5.3838133779        6.8199132644
  H         9.9995291886        1.7915410945        6.9663929599
  C        10.3927096977        3.4678095937        5.7449195047
  H        10.6773788028        3.5078366249       11.2479351666
  H        11.4527646409        3.4504531206        9.7245326599
  C        12.2776121021        2.1281466084       11.0827213327
  C         7.5750595554        6.6323788129       12.5321371342
  C        10.4923899290        4.7633172183        5.6155316280
  H        10.0149721215        6.4474199018        6.8599370805
  C        10.8551580056        3.0376683263        4.4964234275
  H        13.0781335514        2.8564054595       10.9041673921
  H        12.5946128663        1.1984215613       10.5624491103
  C        12.0910794074        1.8932959859       12.6145633300
  C         7.7512470987        7.9890684360       12.9011717434
  C         7.0733075735        5.8095559833       13.6499538376
  C        10.8920907062        5.4286164123        4.3656512717
  C        11.0559898129        4.1279890037        3.6840320358
  S        10.9711555854        1.4964398553        3.7449760468
  H        11.4289008779        2.5447199770       13.0211398912
  H        11.7432506307        0.8809868409       12.8581918316
  C        13.3333233198        2.2192256413       13.3829833642
  N         8.2731830073        8.9155141184       12.0161598459
  C         7.5227608699        8.5365840904       14.1852375610
  C         6.8098507964        6.3154829634       14.9081199667
  H         6.9453276501        4.7654156885       13.5348788369
  C        12.1997137238        6.2778718392        4.4036119309
  C         9.6931144720        6.2017116131        3.7297083616
  C        11.4508786393        3.6881608264        2.4472295413
  C        11.5263970206        2.3180856473        2.3347665113
  H        13.4171064944        3.2980043061       13.3991426410
  H        14.1944334244        1.9664872035       12.7876230836
  C        13.3329916771        1.6595127535       14.8016064753
  S         8.3294627020       10.3991282822       12.8052721868
  N         7.5981660695        9.9324715403       14.1847983067
  C         6.9104636962        7.7839739764       15.1859150250
  H         6.4414620378        5.5935292532       15.6112388323
  H        12.1221469838        7.1425072752        5.0913794587
  H        12.5282501275        6.6853614318        3.4705505594
  C        13.3662022256        5.4697500077        5.0225620709
  H         9.2710497582        6.7800824914        4.4865677646
  H        10.1049322914        6.8803275054        2.9271561093
  C         8.5086492091        5.3632003430        3.2882059633
  H        11.7851969535        4.4411306820        1.7436446385
  C        12.0299531129        1.5779729325        1.0962135591
  H        13.5034034041        0.6107134902       14.7225984094
  H        14.2484704500        2.1381099846       15.2797339919
  C        12.2297441443        2.1252232096       15.8567888960
  C         6.6590793770        8.4098044858       16.4213805808
  H        13.1525042805        5.0327174749        6.0108913104
  H        13.4932938249        4.6003577525        4.3578001698
  C        14.6403440126        6.2611564303        5.2448600362
  H         8.1520632775        4.7127163081        4.0998924911
  H         8.8189287614        4.7454499064        2.4611654910
  C         7.3916889060        6.1866604700        2.6407425470
  C        11.9517054950        0.1636876774        0.9486609749
  C        12.2359606604        2.2633771310       -0.1708661332
  H        11.3147222300        1.5611837448       15.8026837525
  H        11.7241917351        3.0148690727       15.4722799601
  C        12.7467901618        2.3657325143       17.2593703448
  H         6.8472954348        9.4646274230       16.4891006715
  C         6.5297873460        7.8730885236       17.7050141348
  H        14.2516624194        7.0136769209        5.9300503854
  H        14.9355617401        6.7379663143        4.3984567361
  C        15.6992586604        5.4039850105        5.8646017762
  H         7.1765725451        7.0824477880        3.3157175514
  H         7.8103627733        6.6350541535        1.7764987581
  C         6.0958941670        5.3949142112        2.3045631007
  N        11.4994615748       -0.7084073741        1.9479048744
  C        12.2532824054       -0.4616181814       -0.2265047639
  C        12.5125097551        1.6256452905       -1.3522168918
  H        12.3139372568        3.3176151938       -0.1323428245
  H        13.5774864296        3.0374131053       17.3237942526
  H        13.1309234702        1.4555781274       17.8555865313
  H        12.0884819183        3.0014507977       17.8906449573
  S         6.1607995308        6.1902255716       18.0149620818
  C         6.4776480177        8.7428991713       18.8566396919
  H        15.2614443286        4.7357580957        6.6251102121
  H        16.1254084100        4.8298858528        5.0506358403
  C        16.8354538127        6.2174296164        6.4042678557
  H         5.5948282764        5.2434188806        3.2107945010
  H         6.3192485900        4.3813271192        1.8991849937
  C         5.1533968103        6.0859584577        1.3921961039
  S        11.6416102002       -2.2090393682        1.4051088867
  N        12.2137686951       -1.8474806737       -0.0378286540
  C        12.6322723675        0.1639431616       -1.4105914033
  H        12.7193059224        2.1968191469       -2.2579555822
  C         5.9945396481        6.6962722130       19.7404312792
  N         6.0796523231        8.0509218275       19.8899241618
  O         6.5544298647        9.9844439372       18.7846253920
  H        17.1623085057        6.8852684150        5.5965619498
  H        16.5156323897        6.8584218363        7.2328396866
  C        17.8905378496        5.3552778969        6.9042452426
  H         5.6687613278        6.3274895382        0.4354138759
  H         4.3852410509        5.3311768713        1.1631127172
  C         4.6487483780        7.4346378841        1.9483513213
  C        13.0527901593       -0.5103615789       -2.5571749763
  S         5.5366550975        5.6588192784       21.0951382929
  C         5.9751321744        8.6563939260       21.2246152313
  H        17.4562342249        4.8420883050        7.7827532003
  H        18.1661932112        4.5267955945        6.1863456008
  C        19.1887566631        6.0633795146        7.3110820472
  H         5.3399522597        7.8594344402        2.6981274569
  H         3.6440315737        7.3322353728        2.3882414572
  C         4.5445041995        8.3756709213        0.7958381735
  H        12.5350952004       -1.4578404879       -2.5731209975
  C        13.6528706568       -0.2382791495       -3.7330221698
  H         5.3589466588        8.0868282623       21.8323737406
  H         5.6804275198        9.6159619650       21.0037041651
  C         7.3575041122        8.8154389359       21.8401372385
  H        19.4889876796        5.5106026525        8.1815962169
  H        19.0504520064        7.1131873031        7.5393904692
  C        20.2557675351        6.1461944288        6.1647326654
  H         5.5846503143        8.4938964783        0.4800023636
  H         4.0237861620        7.8695608373       -0.0339403767
  C         3.9777298949        9.7726222429        1.1444503958
  S        14.2132918375        1.3676622047       -4.2828026383
  C        13.7331337861       -1.3320278091       -4.7083048592
  H         8.0593703707        9.3762554427       21.2677493835
  H         7.7549691989        7.8622742092       22.0201238657
  H         7.2422206471        9.3023828710       22.8257878091
  H        21.2211404701        6.6347473851        6.6264743037
  H        20.6727930268        5.2365410202        5.7539624090
  H        19.6559222375        6.6347190877        5.3470780922
  H         3.6904768944       10.3975832155        0.3235218143
  H         3.0320347602        9.8252010991        1.6134283667
  H         4.6021276978       10.4007781658        1.8264256676
  C        14.4630976426        0.5159098996       -5.8318885337
  N        14.2596389529       -0.8335849684       -5.8409433624
  O        13.3847381359       -2.4973903984       -4.5915004876
  S        14.9465698770        1.3773789506       -7.3260687370
  C        14.3305444757       -1.5359232705       -7.1075611210
  H        14.4951719306       -2.6029391313       -7.0082748633
  H        15.0878247760       -1.2460459985       -7.8400916052
  C        12.9269221591       -1.4380319908       -7.6723931626
  H        12.8532173848       -0.4796983819       -8.1764665920
  H        12.1240803385       -1.6076858253       -6.9635261037
  H        12.7678156255       -2.2576681264       -8.4105338846
