352
 i =   110600, time =    55300.000, E =        98.3376532656
  H         9.9366453936        4.3340685212       31.9264847777
  C        10.4200287915        5.2049129141       32.3145667526
  H         9.6112444592        5.9441519002       32.4430343138
  C        11.4276767009        5.7317849645       31.3831994859
  C        10.9034519041        4.8336921561       33.7645962810
  C        10.8992337129        6.4908622698       30.1716936362
  H        12.1503677796        6.2823432636       31.9739192375
  H        11.9224317423        4.8757217371       30.9449199186
  H        11.1865966777        5.6481572233       34.3405349569
  H        10.1438671726        4.2466099110       34.3456464838
  H        11.7713727283        4.2121610489       33.6056405021
  C        10.0944431428        5.5883716236       29.2311725837
  H        11.7525975258        6.9283299493       29.6262831542
  H        10.2349025906        7.2917131634       30.4966327675
  C        10.5908536066        5.6278655542       27.8072106206
  H        10.0312748923        4.6212451177       29.6754659028
  H         9.0284510769        5.9182405858       29.3183985850
  C         9.5445727308        5.0799436892       26.8616971875
  H        11.5017068970        5.0048553063       27.7525536374
  H        10.7860101771        6.6222569104       27.5193735193
  C         8.4475814482        5.9805555813       26.3527227728
  H        10.0517265143        4.5819794806       26.0769227361
  H         8.9929140419        4.2843183991       27.4607514689
  C         7.2396644859        5.3246830001       25.6463097228
  H         8.1137333361        6.7360333805       27.1049511000
  H         8.8667713293        6.6854125404       25.5641343463
  C         6.8602585132        3.9458830757       26.2661594608
  C         7.7637854548        4.7243951350       24.4210157740
  C         5.9762761120        6.1876988924       25.4259125785
  C         7.2884206738        2.8942081009       25.4909438346
  C         6.3283410190        3.5288637417       27.4927687393
  C         7.8299859393        3.3775933611       24.2697000510
  C         8.2598897846        5.3624202532       23.2692208380
  H         6.2841358136        6.9546061566       24.7182779457
  H         5.7464019868        6.7971488586       26.3451650125
  C         4.7287117615        5.4847835448       24.8715175117
  S         6.7566321513        1.3714493119       26.2260682944
  C         6.1660375713        2.1715907120       27.5947131226
  H         6.0694095813        4.2581132374       28.3016749783
  C         8.1858125191        2.7463451302       23.1004127124
  H         8.3284831222        6.4502379636       23.2711146738
  C         8.5742447330        4.7412899746       22.0599886859
  H         4.8592126227        5.3008015885       23.7466919653
  H         4.4996688481        4.4414946088       25.2158956252
  C         3.4618915002        6.4135184409       24.8934493694
  C         5.6022076529        1.4887448386       28.8483442302
  C         8.5205813493        3.4233508809       21.8989583056
  H         8.2008000594        1.6878755470       23.1655953960
  C         8.9117847616        5.1678696351       20.7665270704
  H         2.7330140631        5.9027851474       24.1705919141
  H         3.6517417171        7.4269014481       24.5394234579
  C         2.7955961789        6.4966080515       26.2839547568
  C         5.7144765654        0.1138974785       29.0806136301
  C         5.1956221626        2.2682130052       30.0247413677
  C         8.9086851787        2.7587495064       20.6026684378
  C         9.1345386843        4.1285334697       19.9311845447
  S         9.1741016650        6.6522842212       19.9982715474
  H         2.0817722458        7.3339113429       26.3864972273
  H         3.6048050745        6.7765509227       26.9820528887
  C         2.2895827995        5.1474674531       26.6642607590
  N         6.1338637638       -0.8440737660       28.1283851526
  C         5.4775607431       -0.4875181340       30.3073654523
  C         4.8815815765        1.6265278976       31.2382626312
  H         4.9739963386        3.3164091548       29.8988912829
  C         7.8161176038        1.9153499024       20.0054139145
  C        10.1709659068        1.8031753451       20.6022043814
  C         9.4744464997        4.5354272886       18.6016300646
  C         9.4501770512        5.8927525537       18.4923302500
  H         1.8059891106        4.5903299952       25.8738873089
  H         3.1225081647        4.5054862541       26.8781242960
  C         1.3764041408        5.2986833607       27.8616409311
  S         6.3599405701       -2.2567237300       28.8300793376
  N         5.8285028369       -1.8608327461       30.3174222539
  C         5.0907703814        0.1604023514       31.4296276153
  H         4.5798199799        2.2177508224       32.0799709746
  H         7.3983783001        1.2802203070       20.7268933452
  H         8.1397095423        1.1608758789       19.2287903806
  C         6.7134018623        2.6756257356       19.2427182432
  H        10.3341739723        1.4256882923       19.6150749112
  H         9.9129159293        0.8572385787       21.1085773772
  C        11.3533556525        2.5166729044       21.3506633396
  H         9.7090362260        3.7813454433       17.8509420728
  C         9.9052690199        6.6491594350       17.2029984789
  H         1.0342444594        4.3441904895       28.0957550728
  H         0.5089941584        5.8545338938       27.4633735442
  C         1.9551667741        6.0236447453       29.0832552804
  C         4.9657763470       -0.5290505943       32.6661854161
  H         6.9395798949        3.2498724572       18.3606582010
  H         6.2270815148        3.4208116341       19.9194820976
  C         5.5868354834        1.6580380169       18.9714281032
  H        11.1270464983        2.6023396353       22.4107226221
  H        11.5095795636        3.4762370159       20.8283291628
  C        12.6115758392        1.6021114118       21.3068119958
  C         9.9168132260        8.0495124397       17.0570550857
  C        10.0847536689        5.8576601007       15.9629927920
  H         2.4438433608        6.9492581417       28.8678484067
  H         1.3119068971        6.4526245718       29.8477985337
  C         3.1459270476        5.2451752676       29.7149188240
  H         5.2844052166       -1.5754624014       32.6491412241
  C         4.6050064561       -0.1206756222       33.9265279326
  H         5.2115884187        1.3122940976       19.9312053105
  H         6.0314094082        0.7555645015       18.4799535948
  C         4.4850565543        2.3334476578       18.0732653608
  H        12.4044007827        0.7412958997       21.8597980977
  H        12.9077811406        1.3853245043       20.3137583220
  C        13.8197542760        2.4739148750       21.9764031620
  N         9.5486220629        8.9895746681       18.0417785222
  C        10.1867306862        8.6721603234       15.9356316731
  C        10.5065758344        6.4760457899       14.8109557810
  H        10.1048409333        4.7608809053       15.9594454704
  H         3.5516195994        5.8464846794       30.4814603366
  H         2.8179422669        4.4540036712       30.3322657844
  H         3.8052898516        4.8207665611       28.9190369864
  S         4.3785450640        1.5033254771       34.4223859990
  C         4.5007004354       -1.1442981087       35.0359933625
  H         4.2437421847        3.3890295571       18.2933384473
  H         4.9573142243        2.5505542605       17.1193047650
  C         3.2894922647        1.4897861647       17.9060545247
  H        13.5290553402        2.8157263363       22.9642341764
  H        13.9856370573        3.3103253237       21.2618845727
  C        15.1651270843        1.6903509537       22.2475703138
  S         9.6702761798       10.4780134065       17.4930967621
  N        10.3224456545       10.0473501283       16.0421743580
  C        10.5165710273        7.9675424393       14.7146351908
  H        10.7740907457        5.8718887370       13.9339397115
  C         4.0679816195        0.8036687955       36.0158495503
  N         4.0918092345       -0.5428125068       36.1170182058
  O         4.7874728167       -2.3386630968       34.9248212818
  H         2.7892784858        1.9018433469       17.0335304401
  H         2.6681669692        1.5529030267       18.8559928336
  C         3.6388938460        0.0565241349       17.4415742837
  H        15.1730943903        1.2403377620       23.2917205953
  H        15.1506428768        0.8119758860       21.6140379742
  C        16.3198253147        2.6765714068       21.9843436209
  C        10.8837149470        8.7848548209       13.5472250851
  S         3.6226285896        1.7835509343       37.4255143590
  C         4.0485173904       -1.2556056687       37.4355283875
  H         4.3400479302        0.1889335628       16.6002244735
  H         4.1364037732       -0.3127142348       18.3157817966
  C         2.4436137944       -0.8100126889       17.0564376760
  H        16.1025301827        3.5795482203       22.5775247572
  H        16.4165450167        2.8667779957       20.9150238218
  C        17.7097025700        2.1977570089       22.3074360232
  H        10.6660894147        9.8368935500       13.7574267144
  C        11.4157209608        8.4551293116       12.3008817119
  H         3.4363063354       -0.6811206525       38.1575216208
  H         3.6118948190       -2.1987981469       37.2377860779
  C         5.3990663031       -1.4043947521       38.0419486283
  H         2.4940981895       -1.0814928884       16.0006271839
  H         1.5235562257       -0.3059661128       17.2119277825
  C         2.2393879449       -2.1429492591       17.8180610497
  H        17.9218894809        1.3552887567       21.6475718274
  H        18.4138307718        3.0123788319       22.0799110974
  C        17.7619561588        1.6595807536       23.7554961877
  S        11.8278699677        6.9598808449       11.5775868344
  C        11.5226845801        9.5943777234       11.3711595214
  H         5.4553657516       -2.1861458045       38.7848172751
  H         6.1122760252       -1.6848121660       37.2240711009
  H         5.7664468004       -0.5260307336       38.4644121961
  H         2.1253913737       -1.9365152524       18.8836946026
  H         3.0779465384       -2.8301696537       17.4637496916
  H         1.2932130507       -2.7044419264       17.7640324933
  H        18.7476038595        1.2563711681       23.9174702889
  H        17.1117427662        0.8111919245       24.0752654008
  H        17.5522398724        2.4576209174       24.4515573737
  C        12.2185716569        7.7864730937       10.1565662278
  N        12.0779975711        9.1310125055       10.2354073908
  O        11.3108718571       10.7750738365       11.6819463985
  S        12.9256965863        7.1176639346        8.6489666857
  C        12.4183457950       10.1177080046        9.2133110710
  H        12.7362382054       11.0621409079        9.6224908994
  H        13.2604667889        9.8981957908        8.6167255166
  C        11.1558416208       10.4229595311        8.3503078366
  H        10.4429123802       10.8444113876        8.9963926624
  H        11.3106427440       11.1396709789        7.4985237550
  H        10.7478806068        9.4815439767        7.9341773578
  H         3.3023925861        3.7288399363       12.2291030709
  C         3.2278305600        2.6722449757       12.5231808031
  H         2.2072752805        2.4415819888       12.1499466705
  C         4.3634383054        2.0149920590       11.7247902563
  C         3.2778821543        2.3372879236       14.0809039653
  C         3.9868829399        2.0426799492       10.2433099844
  H         4.6826916460        1.0817871277       12.0844293478
  H         5.3170867136        2.6285864298       11.8034377065
  H         2.4154381921        2.7299097181       14.6070172551
  H         4.2694890581        2.6231908894       14.4512261579
  H         3.1741860970        1.2707018170       14.1722183203
  C         4.9546716589        1.2071181431        9.4076842217
  H         3.0068889376        1.6144864535       10.0828742046
  H         3.8992309109        3.0708452491        9.9468003797
  C         5.5927085561        1.9495777689        8.2309537487
  H         4.4113064617        0.3047819817        9.1075062880
  H         5.8817068730        0.9288078350        9.9935525023
  C         6.7607464460        2.8469408061        8.6696753574
  H         4.9334175505        2.5288945252        7.5882047694
  H         5.9359515426        1.1673706081        7.5623038570
  C         8.0024757130        2.1115926906        9.2061933132
  H         7.1024996668        3.4502122732        7.8589445127
  H         6.2507572155        3.4905617810        9.4661639232
  C         9.1901071602        3.0820905746        9.4977219913
  H         8.3543342049        1.4324933046        8.3997814719
  H         7.8326394387        1.5827756780       10.1162851731
  C         8.8123112432        4.3837116553       10.0612458312
  C         9.7206770190        3.7651987141        8.2235595181
  C        10.2920753575        2.3879655907       10.3540718080
  C         9.0603586389        5.4679519792        9.2096654807
  C         8.3227388013        4.8850638603       11.2689920207
  C         9.5855382470        5.0646985304        8.0047209138
  C        10.3215990784        3.1585793693        7.1185719921
  H         9.7627188421        1.8214204575       11.1682995650
  H        10.6974946725        1.5582529321        9.8665853430
  C        11.4987959331        3.2747509070       10.8003191262
  S         8.7588863062        6.9911651122        9.9053856785
  C         8.2242906695        6.2565415450       11.3440895470
  H         7.9193957172        4.1913536235       11.9735010033
  C         9.9320844526        5.6959732751        6.8729741879
  H        10.1980891510        2.0542654863        7.0255182788
  C        10.7146849179        3.7669827905        5.9419318419
  H        11.2507111497        4.3170246804       11.0657480215
  H        12.2250429757        3.3940805645       10.0151176844
  C        12.2169540274        2.7135417281       11.9816631385
  C         7.7202922340        7.0142203491       12.5762305652
  C        10.5235210493        5.1031656549        5.7831674093
  H         9.6927490795        6.7090854706        6.8084276071
  C        11.0553481234        3.4064631221        4.6429107530
  H        12.8464139202        3.6173034757       12.2899667011
  H        12.9301667354        1.9923439272       11.6679284659
  C        11.5111231702        2.2864102159       13.1889076574
  C         7.5878550302        8.4254167249       12.7283732966
  C         7.3388115717        6.1164783372       13.7620096003
  C        10.8064496088        5.8089003921        4.4608658215
  C        11.1767533560        4.4793419753        3.7659787186
  S        11.3019700812        1.8286733058        3.9921258590
  H        10.5049235872        2.6422156068       13.1919331900
  H        11.4949826049        1.2413071597       13.2449606828
  C        12.2359795349        2.7266460535       14.4459993473
  N         7.9446585623        9.3074719544       11.6852267109
  C         7.2798741884        9.0103060683       13.8960626743
  C         7.0843256515        6.7796359737       14.9912236324
  H         7.2386842242        5.0605322465       13.6360854670
  C        12.1017253503        6.6380339603        4.6054552939
  C         9.7109847174        6.5976105438        3.6980246763
  C        11.3337442379        3.9430326298        2.4624831704
  C        11.5436881804        2.5947035951        2.4187737555
  H        12.3395666448        3.7746949347       14.7254644227
  H        13.2686720105        2.5084815587       14.2973076398
  C        11.6259186802        1.9987440126       15.6748491754
  S         7.7505584131       10.7995425896       12.2429603766
  N         7.2267766429       10.3839964138       13.7569191230
  C         6.9963802879        8.2990889912       15.0947579860
  H         6.8449128460        6.1757232706       15.8251828212
  H        11.9267979522        7.3234012595        5.4517178895
  H        12.1418959904        7.3236408974        3.7618069678
  C        13.4280555121        5.8327252240        4.7943838449
  H         9.5119170623        7.5688581717        4.1610477428
  H        10.0406683224        7.0159594121        2.6567642886
  C         8.4107358394        5.8172005377        3.5600249424
  H        11.2718495458        4.6659622663        1.6857094474
  C        11.7430142864        1.7616840480        1.2112301463
  H        10.7526842637        2.6103502637       15.9069431984
  H        11.2674618730        0.9649627725       15.5622839640
  C        12.4769757749        2.0940623346       17.0097701659
  C         6.7090145158        9.0217011196       16.3065636024
  H        13.2918649627        4.9195485879        5.4351310556
  H        13.8238283233        5.4568044978        3.8952284692
  C        14.5054261311        6.7487069079        5.4295931514
  H         8.0528597812        5.4308010446        4.4948652620
  H         8.5452862245        4.9392990483        2.9484000884
  C         7.3144366792        6.8408773528        2.9645430124
  C        11.7339035750        0.3763727751        1.1434203134
  C        12.1306380649        2.5373538455       -0.0230303471
  H        13.2994788090        1.3889828568       16.9777899797
  H        11.7518401629        1.8010667988       17.8113926284
  C        12.9693872850        3.4693049937       17.4521878519
  H         6.7520931952       10.1405129086       16.1862281688
  C         6.4446893092        8.5759474377       17.6348620971
  H        14.0212282124        7.4886470601        6.0308126054
  H        14.9216834027        7.1806334043        4.5959757469
  C        15.4020554909        5.7911847559        6.2506702548
  H         6.8165106802        7.2681041330        3.8176984935
  H         7.7326524976        7.6317423847        2.3986418048
  C         6.3045480441        6.0916377179        2.1040196505
  N        11.5568856498       -0.4950052547        2.2562330001
  C        12.0022987875       -0.3001539107       -0.0164511560
  C        12.3983744076        1.7812273034       -1.1568149690
  H        12.0901270356        3.6098336628       -0.1381407247
  H        12.4563147168        4.2845121365       16.9648539352
  H        13.9742613837        3.6278245871       17.1291476133
  H        12.8912535038        3.6538098218       18.4913261513
  S         6.1796460666        6.9649875573       18.1505853970
  C         6.4473941729        9.6080630137       18.7223207846
  H        14.8853771036        5.5759606008        7.1358495745
  H        15.5454119710        4.9278709019        5.6498976650
  C        16.7376310176        6.4360483320        6.5201585264
  H         5.9393931806        5.2351007648        2.7225922899
  H         6.7703121408        5.6786372595        1.2458774049
  C         4.9869066883        6.7608048748        1.7562563139
  S        11.5959580203       -2.0033461668        1.7662381888
  N        11.9459992419       -1.6380029486        0.2357197282
  C        12.1982147206        0.2975519032       -1.2643025255
  H        12.5777001196        2.3683133003       -2.0764972645
  C         5.7792578447        7.6874000425       19.6856938492
  N         6.0653896940        9.0153226280       19.8412841372
  O         6.7601936442       10.7975193499       18.5878698947
  H        17.1559103052        6.7597864328        5.6222539062
  H        16.5163380239        7.2829667941        7.1319549179
  C        17.4815136214        5.3784846533        7.2188119539
  H         4.3693290851        6.0771395110        1.2228129089
  H         4.3606480873        7.0461785568        2.5751674210
  C         5.1616180165        8.0137587855        0.9144099012
  C        12.5993160045       -0.5773497330       -2.3334775421
  S         5.4561425449        6.9085294105       21.2629924462
  C         5.9061131017        9.7726825494       21.0381411928
  H        16.9997506020        5.0655482696        8.1663600943
  H        17.5821359128        4.5249556497        6.5459953895
  C        18.8450305447        5.9113391390        7.4953984239
  H         5.0682727944        7.7688014942       -0.1570638088
  H         6.1379400957        8.4304706785        1.1391877215
  C         4.0893293783        9.0450923368        1.1225683679
  H        12.2734588360       -1.6100620591       -2.3286499025
  C        13.1231402213       -0.3970143167       -3.6097029978
  H         5.0478887259        9.3592590608       21.5455172228
  H         5.6250303285       10.6979131242       20.8994601877
  C         7.2107275774        9.7079164761       21.8613206764
  H        19.2369622040        5.3287632969        8.3394564209
  H        18.7338665776        6.9458816403        7.8812028274
  C        19.7168080953        5.9619028973        6.2141739734
  H         3.8405069641        9.6961688962        0.2916208288
  H         3.2077573412        8.4094450053        1.4117106726
  C         4.3571040396       10.1337676942        2.1462182175
  S        13.6348286750        1.1835054712       -4.1571919281
  C        13.4013191930       -1.5334259657       -4.5452899160
  H         7.1234512245        9.1566992959       22.8069072009
  H         7.3736262043       10.7514663358       22.1457574819
  H         8.0852477130        9.2533531255       21.3414375761
  H        19.3629661037        6.6926235361        5.3929404911
  H        20.7542781198        6.1994696137        6.3579005494
  H        19.7562746319        5.0154800841        5.6804511028
  H         3.7942694421        9.9652688875        3.0192162730
  H         5.3900028059        9.9880152140        2.3702602597
  H         4.2584433664       11.1846506086        1.7818458470
  C        14.2902252032        0.3465135217       -5.5909957830
  N        14.0382011958       -0.9735425141       -5.6567310347
  O        13.0877093058       -2.6996639610       -4.3778466297
  S        15.0715640414        1.0724079315       -7.0027182643
  C        14.1100686588       -1.7310390665       -6.8570358384
  H        14.0483123457       -2.8204880519       -6.7071651433
  H        15.0193049794       -1.5872941688       -7.3304282252
  C        12.8760937281       -1.5205214275       -7.7068418615
  H        12.8690366488       -0.4973726529       -8.0406444070
  H        11.9945059816       -1.8188464465       -7.1487224376
  H        12.8713149512       -2.1402834311       -8.5809710216
