352
 i =   112700, time =    56350.000, E =        98.4822877231
  H         9.5942570428        4.8277214038       31.7141580937
  C        10.0519372556        5.8137957675       31.9069939884
  H         9.3359434214        6.5945726342       31.8579437959
  C        11.2104040878        6.0313521416       30.9124825299
  C        10.6038465384        5.7325335865       33.3367787382
  C        10.6633865684        6.3842207150       29.4971278599
  H        11.7418061155        6.8771573328       31.2950759721
  H        11.9197686245        5.2100135612       30.8779219161
  H        11.7155419765        5.6384591930       33.2702185505
  H        10.4444803969        6.6231113664       33.7893518966
  H        10.1446242993        4.8754082380       33.8921400811
  C        11.0661888273        5.2770648885       28.5868567022
  H        11.1685207760        7.3179334775       29.1918881268
  H         9.5840976535        6.4793574083       29.5032249045
  C        10.9476108675        5.7159616284       27.1154366703
  H        12.1270667498        5.1535488744       28.7647716421
  H        10.5786383173        4.3098683096       28.8719412520
  C         9.9277329074        5.0041235113       26.2613568007
  H        11.9275406462        5.5754833471       26.6631430801
  H        10.7076820955        6.7876063076       27.2530811871
  C         8.6809200317        5.9070407839       26.0385479142
  H        10.4269598185        4.5916972791       25.4487856271
  H         9.6575370696        4.1024083345       26.7418105938
  C         7.3803122264        5.2633912858       25.4014210368
  H         8.3964208978        6.4898314458       26.9075544136
  H         9.1075329148        6.6274270616       25.2629251531
  C         6.9562457852        3.9794826848       26.1051558557
  C         7.7976634805        4.5801470768       24.1778564880
  C         6.1925683194        6.3214938302       25.2848589186
  C         7.0643186821        2.8560553110       25.2943764643
  C         6.3834181016        3.6467128692       27.3213922502
  C         7.6222680009        3.2010635571       24.0780182903
  C         8.2626643028        5.1763058515       22.9829153788
  H         6.5707882450        7.2988709541       25.0290221409
  H         5.8447428631        6.5078300791       26.2659285300
  C         5.0409834178        5.8295662086       24.3592851771
  S         6.6371704869        1.4256628365       26.0380235138
  C         6.1944686499        2.2610407781       27.4397096510
  H         6.3049681547        4.4759030725       27.9726129587
  C         8.0455717585        2.5356709339       22.9360119004
  H         8.2948488914        6.2547454454       22.9698477851
  C         8.6242091438        4.5058612503       21.8314541974
  H         5.4342663878        5.8860310639       23.3323099512
  H         4.7233760691        4.8185169688       24.6523918146
  C         3.8921230363        6.7384298251       24.1863162777
  C         5.7490150124        1.5502635166       28.7104399246
  C         8.4097209762        3.1428995927       21.7613284404
  H         7.8863436456        1.5122923679       23.0258533829
  C         8.9977464589        4.9063014205       20.5710720472
  H         3.3252408093        6.4189862833       23.3034161857
  H         4.2451201917        7.7440977810       23.9608778189
  C         2.9591587606        6.7160786586       25.4005377787
  C         5.7054488608        0.1147696660       28.9171914783
  C         5.2737819956        2.3549682597       29.8618870923
  C         8.8515813373        2.4478091116       20.5083755645
  C         9.0162232771        3.8113632594       19.6901540572
  S         9.2539858542        6.4077144536       19.7751241191
  H         1.9700801238        7.1387400637       25.0858558226
  H         3.4258245807        7.2892116593       26.1862645813
  C         2.5550674445        5.3544836163       26.0655092350
  N         6.0151187777       -0.9036505103       27.9916130378
  C         5.3568407439       -0.4525808946       30.1223024873
  C         4.8047469523        1.7456019158       31.0234426938
  H         5.0879075751        3.4411899867       29.7335516806
  C         7.7372309169        1.4875082978       20.0877473044
  C        10.2207988210        1.7105999242       20.4671311957
  C         9.2798013228        4.2295204693       18.3885694898
  C         9.3795052112        5.6019175530       18.2864315780
  H         2.1390801956        4.7072929010       25.2518652131
  H         3.3248034146        4.7903637311       26.5848646239
  C         1.5142970277        5.6018287669       27.2066820492
  S         5.9310404091       -2.3530996046       28.6910615771
  N         5.6096593639       -1.7834875194       30.1873987454
  C         4.9548028301        0.3358326838       31.2480401191
  H         4.4461099089        2.2979392964       31.8066314905
  H         7.5013876844        0.8518918230       20.9362003708
  H         8.2565884410        0.9350418535       19.3639161264
  C         6.5649345934        2.2921905500       19.4945961805
  H        10.3437450340        1.0639141169       19.5593572420
  H        10.1564718937        1.0742587780       21.2963663265
  C        11.3654768836        2.5663035399       21.0296278096
  H         9.2981562435        3.4967728084       17.5735335955
  C         9.6465292595        6.3460676714       16.9594225792
  H         1.1301989970        4.5897558806       27.3867623844
  H         0.6322931819        6.0529678385       26.9278711790
  C         2.0301704105        6.3346037441       28.3968320953
  C         4.6514839829       -0.3876332263       32.4848278171
  H         6.7984776883        3.0543538678       18.8811305827
  H         6.0911614296        2.8976033578       20.2906713641
  C         5.4636341425        1.4327023888       18.9023351432
  H        11.0992400908        3.0031853870       21.9634959775
  H        11.6079820913        3.4545077335       20.4409778167
  C        12.6318758513        1.8299349220       21.3372628688
  C         9.7697892133        7.7181387113       16.8405236495
  C         9.6747482344        5.6002235848       15.7118626080
  H         2.5123457041        7.2695878285       28.0939426962
  H         1.2337966860        6.5430750438       29.0972304426
  C         3.0473609218        5.6358600943       29.1929169680
  H         4.5545021930       -1.4275447494       32.2404803900
  C         4.3943755365        0.0534159752       33.7265617049
  H         5.1784441965        0.6556435607       19.6142858211
  H         5.8230156374        0.9022935931       18.0070581010
  C         4.2967810052        2.2063688749       18.2937316378
  H        12.5241855510        1.3504841520       22.3545475911
  H        12.7238696200        1.0664737244       20.5618872887
  C        13.7610669234        2.8048713246       21.5656180116
  N         9.7122348624        8.6828816780       17.8901886882
  C        10.0145935351        8.3537068304       15.5728746393
  C         9.9439714716        6.2040313705       14.4904655993
  H         9.5137852237        4.5282282971       15.7726860069
  H         2.9199305819        5.8349434756       30.2575829873
  H         2.9943063392        4.5863096368       29.0104122219
  H         4.0821634324        5.9204031796       28.9935585991
  S         4.4233782358        1.6784691366       34.3417858726
  C         4.2419258500       -1.0562912702       34.6647152802
  H         4.0558955146        3.1479649080       18.8224561387
  H         4.5459398879        2.4767537345       17.2676177390
  C         3.0134144287        1.3507485979       18.3635752051
  H        13.4658554026        3.3930009584       22.4370420931
  H        13.9638934743        3.4051952817       20.7193765050
  C        15.0434033520        2.1022121763       21.9850071978
  S         9.9464841157       10.1191799173       17.2396821747
  N        10.4244705257        9.6641176946       15.7670574962
  C        10.2527193032        7.6557239858       14.3522041789
  H         9.8584423995        5.6939702006       13.5169536519
  C         4.1510765733        0.8063782954       35.8983587338
  N         4.0554147976       -0.5364551465       35.8722730092
  O         4.3642477918       -2.2646277427       34.3414087441
  H         2.1717763150        2.0099421771       18.1944357991
  H         2.9144981731        1.0086656676       19.3477800545
  C         2.9371421581        0.2542656506       17.3434542300
  H        14.8898139482        1.7242757756       22.9599321668
  H        15.2403837208        1.2278081709       21.3872255582
  C        16.3301387866        2.9674887503       22.0683898409
  C        10.5581426782        8.3658628625       13.1812513558
  S         4.0914394472        1.6666716315       37.4725946310
  C         3.9800830272       -1.3051684432       37.0529270365
  H         2.6751878853        0.6342914476       16.3891970903
  H         3.9074006007       -0.1643431428       17.0706037678
  C         2.1948230338       -0.9876460857       17.8120819093
  H        16.0091481951        3.8400052074       22.6344135310
  H        16.6939051908        3.3403104731       21.1304633271
  C        17.6221472250        2.2388751926       22.6439514176
  H        10.3124223249        9.4198134951       13.2736686727
  C        11.2230356239        7.9802213852       12.0358454564
  H         3.2485465354       -0.8902748258       37.7825307094
  H         3.5106219780       -2.3284965110       36.8462637238
  C         5.3071137821       -1.5708689480       37.7637339863
  H         1.2031715992       -0.6201512854       18.1237039147
  H         2.5709117090       -1.6615261124       18.6925000647
  C         1.9643351295       -1.9273276097       16.6102666959
  H        17.8133448763        1.2944331291       22.1126078736
  H        18.5850947631        2.7367228636       22.4799424726
  C        17.3158081689        1.9724590832       24.1289936945
  S        11.8216586635        6.3491725957       11.7918964134
  C        11.4690988740        9.0041207487       10.9469207435
  H         5.4188134176       -2.5144673143       38.2710424583
  H         6.1203933403       -1.4766502481       37.0718666802
  H         5.4712789774       -0.7413270468       38.4942939732
  H         1.4213566561       -1.4424942820       15.7477810895
  H         1.3818356639       -2.7407016646       16.9558676099
  H         2.8919585839       -2.3525962099       16.2448063195
  H        16.7178084966        1.0764905618       24.1763560640
  H        16.7691843828        2.7901531721       24.6625577956
  H        18.1980095128        1.7948425445       24.6365745651
  C        12.4622619550        6.9795474408       10.2946682530
  N        12.1804104461        8.3125233427       10.0380835899
  O        10.9917038318       10.1305930053       10.9526229595
  S        12.9960440567        5.9328327017        9.0026164803
  C        12.5007285366        8.9481346582        8.7784911633
  H        12.5329562881        9.9957321629        9.0096970052
  H        13.4633758300        8.5614647244        8.3355380714
  C        11.3382765562        8.7997525109        7.7500998871
  H        10.5236204057        8.1555080901        8.2116574509
  H        10.7568394114        9.7372648680        7.6453507449
  H        11.6746078387        8.3836777332        6.8313409881
  H         2.5848080246        3.8399282931       12.3046329493
  C         3.1530267278        2.9055297453       12.5549110055
  H         2.4386568477        2.1501101582       12.5262495860
  C         4.1694126437        2.6586972267       11.4664881269
  C         3.7337416724        2.8916429588       13.9561925097
  C         3.6591487841        2.4371439372       10.0244183494
  H         4.9352366295        2.0440459612       11.8002115273
  H         4.6896019141        3.6480773380       11.3512420344
  H         2.9560767608        3.1874523268       14.6178851835
  H         4.5344491239        3.6028593168       14.0519568862
  H         4.1810555156        1.9678270145       14.3126285028
  C         4.4594444393        1.3839595706        9.2944224519
  H         2.6088179642        2.1027653248       10.1716143339
  H         3.5922396269        3.4396024025        9.5615040699
  C         5.2416781567        1.9317896533        8.0704173013
  H         3.8073293828        0.5196936255        8.9473614137
  H         5.1702008723        1.0104556076        9.9966272377
  C         6.4006888004        2.7231328495        8.5180357922
  H         4.6780872395        2.6084762348        7.5076126999
  H         5.4627935718        1.0391163653        7.4248413517
  C         7.6852250197        1.9387819953        8.8076678018
  H         6.5116998741        3.2849872834        7.5630511828
  H         6.1150805811        3.4089826205        9.2794883644
  C         8.9557619474        2.7392808402        9.0343342390
  H         7.8666603456        1.1460544778        8.0566485071
  H         7.4917987676        1.3729587699        9.7197473443
  C         8.5895685510        4.0920663531        9.5942039576
  C         9.4716490494        3.4375362908        7.8096190325
  C        10.0758976854        2.0496287515        9.8166108992
  C         8.7284028982        5.1712123265        8.7503141945
  C         7.9672014184        4.4734948334       10.8365786082
  C         9.3537050009        4.7553350975        7.6240278104
  C        10.0253133310        2.7727513795        6.6717332297
  H         9.7204797068        1.5761538301       10.6772638533
  H        10.4697489689        1.1239727231        9.4068010224
  C        11.2806772272        2.9708380146       10.1202837173
  S         8.2333040469        6.6594797407        9.4469152531
  C         7.7784691842        5.8105719408       10.8532228211
  H         7.6708389760        3.7172609131       11.5710943962
  C         9.8622829279        5.3809640556        6.5421005930
  H        10.0493241192        1.7089618971        6.6515491904
  C        10.5169898276        3.3825260775        5.5695872844
  H        10.9810548631        3.9277727757       10.4810729630
  H        11.7752950261        3.0845934922        9.1366345133
  C        12.3076154939        2.3565644516       10.9973890590
  C         7.3578906675        6.5076306884       12.0536416595
  C        10.4583998107        4.7134505141        5.4522665657
  H         9.7299613988        6.4337719782        6.4524579391
  C        10.9697724138        2.9663119742        4.3551657856
  H        13.2248844590        2.7747487823       10.7607322380
  H        12.3962109270        1.3087867368       10.6262919753
  C        11.7504336879        2.3749955001       12.4073944674
  C         7.4889785992        7.8641398687       12.3047794700
  C         6.7807615639        5.7083074375       13.1588194236
  C        10.8688821208        5.4139087293        4.2011437672
  C        11.1492576298        4.0445970477        3.5225305153
  S        11.2771604174        1.4458925600        3.6775117564
  H        11.4906279794        3.4306981815       12.6050230611
  H        10.8420427873        1.7903579858       12.5488015759
  C        12.7222036790        1.9032954018       13.5064568353
  N         7.8162494408        8.8066835465       11.3774226400
  C         7.2190398942        8.4175419862       13.5739500815
  C         6.5644580738        6.2420815874       14.4263027742
  H         6.4489792255        4.7182391564       13.0009221676
  C        12.1602435514        6.2209327988        4.4253704205
  C         9.6703989506        6.2536851486        3.6857401252
  C        11.7394122958        3.6053625745        2.2921909727
  C        11.7387824072        2.2308310169        2.2114906057
  H        13.6478802789        2.4134396728       13.3294236874
  H        13.0088566305        0.8789337347       13.4029242900
  C        12.3173392573        2.3089876522       14.9103209676
  S         7.9027516748       10.2481591277       12.1726226405
  N         7.4517109362        9.7504610417       13.6814124701
  C         6.8075092656        7.6693942307       14.7262689265
  H         6.1135056599        5.5446444717       15.1280773015
  H        11.7982348074        7.0558289436        5.0274904652
  H        12.6082489147        6.6849947571        3.5527736964
  C        13.3583694895        5.4531128201        4.9725536238
  H         9.3403098041        6.9754804405        4.3834287786
  H        10.1122390946        6.8073543798        2.8967553342
  C         8.4656046008        5.4348945369        3.3681071094
  H        11.8992119400        4.3266575227        1.5102461272
  C        12.0213300787        1.4980522604        0.9390413844
  H        12.0801311226        3.4097843972       15.0126917514
  H        11.4954105488        1.6324092432       15.1969216605
  C        13.2878814934        2.0316976139       15.9900791193
  C         6.6066940970        8.3346875422       15.9478807115
  H        13.0386126318        4.6018482836        5.6029091774
  H        13.7711167853        4.9933258383        4.0333945000
  C        14.5124927744        6.2948427765        5.5714082784
  H         8.1470007065        4.9228589294        4.2733523574
  H         8.6645619463        4.7345908333        2.5314445691
  C         7.4132254717        6.4371837507        2.9089055580
  C        11.8620873937        0.1081801042        0.7457715740
  C        12.3745838861        2.2137592506       -0.3245278694
  H        14.3105512125        2.0122300692       15.7342072648
  H        13.1680649755        0.9538238426       16.2210796706
  C        12.9718491459        2.7877135170       17.2592622285
  H         6.8367372139        9.3583178396       16.0228104248
  C         6.3937876716        7.7965686825       17.2254366935
  H        14.1390297264        6.8205198695        6.4185312389
  H        14.8090290444        7.0527510208        4.8544424938
  C        15.7128699988        5.3121448722        5.9866247788
  H         7.1915882974        7.2779434308        3.5509324280
  H         7.8543038237        6.8143968282        1.9665790297
  C         6.0576055164        5.7627492145        2.5190528390
  N        11.4011673583       -0.7943401322        1.6960206612
  C        12.1535280343       -0.5203465437       -0.4204265927
  C        12.6494354216        1.5849106355       -1.5302909271
  H        12.6938125660        3.3060217049       -0.2585362761
  H        12.0156657403        3.2521760803       17.2276725280
  H        13.7532231530        3.5272755858       17.4762248964
  H        12.7347587981        2.0365041011       18.0183363836
  S         6.0690704331        6.1604769621       17.6625405939
  C         6.4966599421        8.7346656983       18.3713425338
  H        15.3806175714        4.7238434124        6.8767410478
  H        15.8137086087        4.4774870778        5.2175950500
  C        17.1340646279        5.9885130699        6.2918782958
  H         5.8694234292        5.0396377939        3.3167941128
  H         6.0732650428        5.1564212109        1.5898539906
  C         4.9490220098        6.7670756733        2.5322040266
  S        11.3047268624       -2.2732418801        1.0993254523
  N        11.9476175984       -1.8510528677       -0.3352697094
  C        12.5224179306        0.1375699576       -1.6502023977
  H        13.0173813364        2.2080040791       -2.3537851968
  C         6.1136414390        6.7947862890       19.3194484629
  N         6.0527069141        8.0579822960       19.4553588886
  O         6.6550119035        9.9662343675       18.2337829589
  H        17.6821611983        6.1947578824        5.3645558771
  H        16.8873473823        6.8443345445        6.9147579817
  C        18.0732612869        5.0754544760        7.0562918555
  H         3.9850086441        6.2472007856        2.4292920750
  H         4.8649995809        7.2025300646        3.4956097731
  C         5.1461213983        8.0364811298        1.6592271388
  C        12.6398020136       -0.6919995306       -2.7993789565
  S         5.5905271646        5.8434905003       20.7113079226
  C         5.7538856925        8.7717069725       20.7588629909
  H        17.4915717549        4.5168958325        7.7728164088
  H        18.4373449731        4.3605431536        6.3377512312
  C        19.1603541570        5.8579772801        7.8080937117
  H         5.1119160717        7.8329344207        0.5976612802
  H         6.1274398099        8.4802681306        1.7914200896
  C         4.1129893388        9.1393467382        1.8326217061
  H        12.2004577036       -1.6608666819       -2.6516765681
  C        13.2100880188       -0.4542775273       -4.0429378441
  H         4.9805802701        8.2736129044       21.3235430239
  H         5.4662213368        9.7836515655       20.3818165458
  C         7.0558266234        9.0681242674       21.5279081953
  H        19.4630493584        5.2743743971        8.6664130996
  H        18.7273527864        6.7781744502        8.0822726184
  C        20.3219741473        6.1920895181        6.8505795705
  H         3.2242011783        8.6036951792        2.1470533870
  H         4.3114401414        9.8217996366        2.6226290811
  C         3.8883709339        9.9620907518        0.5850066578
  S        13.9657129086        1.0330086879       -4.6022011724
  C        13.2439434810       -1.5336753066       -5.0287749279
  H         7.2497454295        8.5165978592       22.4356024646
  H         6.9722177156       10.1260207967       21.7081108503
  H         8.0147240333        9.0760500166       21.0338559272
  H        19.9819479460        6.4388472235        5.9364975835
  H        20.9862687644        6.9816457283        7.3048540991
  H        20.9972720286        5.3778623162        6.8061656062
  H         3.5202477210       10.9687368679        0.9080890618
  H         4.8117998139       10.0636428298        0.0048575212
  H         3.1194729331        9.6252500571       -0.0923504184
  C        14.3830577894        0.0772873909       -5.9876848497
  N        13.9126477180       -1.1553217512       -6.0835717428
  O        12.7169485019       -2.6401684185       -4.8419510264
  S        15.2008679902        0.8384897007       -7.3753044220
  C        13.9197933788       -1.9265115582       -7.3156285760
  H        13.8578467973       -3.0328973609       -7.1141061194
  H        14.8651553468       -1.7510021807       -7.8233369153
  C        12.8830394681       -1.5573711841       -8.3498829822
  H        12.7433281376       -0.5079273158       -8.4695604548
  H        11.9997898752       -2.1111623722       -7.9662648486
  H        13.2499614968       -1.9866330265       -9.3191510862
