352
 i =     7300, time =     3650.000, E =       162.1731934126
  H        11.8650883765        5.9728722328       31.7562889046
  C        10.9628464215        5.6143833790       32.2119662704
  H        11.0852252202        4.5061149141       32.2715492705
  C         9.8375107716        5.9285413800       31.2770573997
  C        10.7517050483        6.1826533657       33.6345748226
  C         9.9512447942        5.3349885682       29.8541292516
  H         8.9956736691        5.6876290454       31.8599760177
  H         9.8645695656        6.9969115168       31.1206957536
  H        11.0910111958        7.2192955601       33.6362769214
  H         9.7276692196        6.1508038825       33.8532298209
  H        11.4003072577        5.8170236751       34.4403500442
  C        10.0289590110        6.4834294344       28.9057456022
  H         9.1639014779        4.6164303656       29.7087592337
  H        10.9165715958        4.8222453625       29.7172437144
  C        10.5177985892        5.9762880367       27.5188156696
  H         8.9155993164        6.7167309506       28.9671358850
  H        10.5879700458        7.3920739970       29.1406913555
  C         9.5351914145        5.1735883257       26.6429338472
  H        11.4110547795        5.2668983681       27.5840272143
  H        10.9786437556        6.8476465336       27.0372524870
  C         8.5093419449        6.1088447729       25.9362808348
  H        10.0588916504        4.6210303979       25.9002906325
  H         9.1169331207        4.4286262897       27.2556900384
  C         7.4741721646        5.2332281090       25.1498758247
  H         8.0394111285        6.6152828153       26.7733896912
  H         8.9770172071        6.8166063206       25.2304477169
  C         7.1788336039        3.8676495669       25.8660053888
  C         8.0273218250        4.4857642068       23.8904156609
  C         6.1302704357        5.9640798458       24.9892902311
  C         7.4326097956        2.7837713439       25.0052072068
  C         6.5826963337        3.5438733536       27.0959150613
  C         7.9895514043        3.1173760646       23.8015123998
  C         8.6154744799        5.0531486504       22.8154149607
  H         6.4684092016        6.7766622449       24.3917199888
  H         5.7926730918        6.2581385257       25.9745056561
  C         4.9856741873        5.1701117660       24.2330492722
  S         7.0952809608        1.2454070922       25.8262278464
  C         6.6125079801        2.1649440521       27.2890805987
  H         6.2108478054        4.2807091309       27.7899284712
  C         8.5059013307        2.4805780201       22.7665331125
  H         8.4694019754        6.0945513010       22.7144057002
  C         8.9966517356        4.3876284694       21.6550277211
  H         5.0837388450        4.9601015457       23.1446702251
  H         4.7975837157        4.2613063416       24.8412090165
  C         3.7644591920        6.2235226677       24.2057968742
  C         6.1884620631        1.4451538560       28.5258854185
  C         9.0103278162        3.0493033745       21.5700032257
  H         8.5004017603        1.4690620394       22.5822529246
  C         9.2533106453        4.7710651073       20.3524969240
  H         3.1151134362        5.8573241579       23.5223105510
  H         3.9948825376        7.1165258921       23.7028313977
  C         3.1521750553        6.6699579320       25.5016003284
  C         6.1311999825        0.0671333169       28.7311553961
  C         5.8538723189        2.2615906175       29.7070606307
  C         9.4060028057        2.3626352662       20.2555920372
  C         9.5634511398        3.7002093430       19.4495927452
  S         9.6316384597        6.2886394745       19.5674044889
  H         2.3351715563        7.1722446430       25.2710870361
  H         3.8736655603        7.2041298124       25.9285277276
  C         2.8290973107        5.4333130167       26.3437388488
  N         6.4024809675       -0.9106048787       27.8025572715
  C         5.8923210108       -0.4450302896       30.0011498297
  C         5.4049636791        1.7373057041       30.9331646100
  H         5.7652077640        3.3464072483       29.5200094162
  C         8.2521529014        1.4864160387       19.6630272956
  C        10.6468636886        1.5052089272       20.4052760819
  C         9.8369639188        4.0408805203       18.1505527524
  C         9.9764597344        5.4283237338       18.1057644455
  H         2.6191811157        4.5961708285       25.6190639322
  H         3.5475559972        5.1033353582       27.0488952528
  C         1.6873353804        5.7705842711       27.2901330779
  S         6.4377873192       -2.3321371635       28.5849619197
  N         6.0276861965       -1.8466073630       30.0603212426
  C         5.5015815075        0.2809038790       31.1750408210
  H         5.1120640426        2.4443946257       31.7884154790
  H         7.8068959617        0.8012381222       20.4161797852
  H         8.7951810714        0.7919704574       19.0104974327
  C         7.1132179802        2.1805003618       18.8640184040
  H        10.7897311391        1.2383813362       19.3901267533
  H        10.4582552782        0.5022179060       20.9726850511
  C        11.8760938895        2.2010769034       21.0177473347
  H         9.8829726758        3.1888652556       17.4264441367
  C        10.1301606792        6.2043003789       16.8449549440
  H         0.6767487195        5.7581082655       26.8270688493
  H         1.8486642427        6.7223289885       27.7209605957
  C         1.5505062106        4.7748002739       28.3900843683
  C         5.3246493232       -0.3874508475       32.4077922821
  H         7.5836060815        2.6369276036       17.9256438800
  H         6.6566581547        3.0153326751       19.3575004993
  C         6.1054575319        1.1924852072       18.3486478013
  H        11.5467765468        2.5309133879       22.0096249868
  H        11.9892295616        3.0926251685       20.4184754180
  C        13.1798010849        1.3403751736       20.9421903035
  C        10.1781053806        7.6158293839       16.8300707336
  C        10.1268351119        5.5212714152       15.5714405539
  H         1.3788218832        3.7720668375       28.0531727783
  H         2.5544470827        4.7764918146       28.7875622044
  C         0.7575123149        5.3699362836       29.5304851621
  H         5.5561516308       -1.3892893237       32.4843695443
  C         4.9361896994       -0.0507375111       33.6624310794
  H         5.5188323581        0.6717033925       19.1156698403
  H         6.6580793517        0.3715361056       17.9339226672
  C         5.3180722448        1.7855528281       17.3237380538
  H        13.2763297473        0.4806129785       21.6461995105
  H        13.4490487611        0.9020361906       19.9959271375
  C        14.4144109507        2.0870125421       21.2286419221
  N        10.0782397838        8.4428944674       18.0306966084
  C        10.3986513236        8.3145593330       15.6867040293
  C        10.2054885823        6.2789420246       14.4463176248
  H        10.0199289930        4.4504488075       15.5320168105
  H        -0.0849276282        4.7891171099       29.8166742852
  H         1.4581529043        5.5276243449       30.3005526022
  H         0.3452940258        6.3769758919       29.3359422966
  S         4.3617647840        1.5110255834       34.1858933380
  C         4.8809944987       -1.0833427247       34.7041192085
  H         5.2965515165        2.8898580292       17.3356214693
  H         5.6628625775        1.5399402489       16.2667521191
  C         3.7803545622        1.5199018370       17.5705223146
  H        14.5708474677        2.8021357305       20.3558294899
  H        15.3445100550        1.5871696953       21.1573967244
  C        14.4288482165        2.9434593224       22.5932331717
  S        10.1325606687       10.0230334091       17.5559531430
  N        10.3831984386        9.7070241839       15.9671785125
  C        10.5146386841        7.7278829896       14.4032910248
  H        10.2283464126        5.7343226943       13.5559704892
  C         4.3460566064        0.8690247352       35.8733256306
  N         4.6178250450       -0.4727875972       35.9516720131
  O         5.0964655780       -2.3056166855       34.6014033550
  H         3.2200814285        2.1559883353       16.9105836771
  H         3.5467177038        1.8021077548       18.5605860784
  C         3.4151458440        0.0979693380       17.1971108721
  H        13.7817662586        3.8019673335       22.5003831926
  H        13.8412078464        2.4708188838       23.3899433148
  C        15.7446239500        3.3442214135       23.0871665892
  C        10.8220732699        8.5421678129       13.2999586371
  S         3.4900050159        1.5907055806       37.1472870633
  C         4.6829101139       -1.3097727795       37.1632306598
  H         2.5618117373        0.0678327434       16.4475810178
  H         4.3272899234       -0.2990336870       16.6546357386
  C         3.1162161127       -0.8193179032       18.3594978604
  H        15.5134190859        4.0849280069       23.9078778684
  H        16.2939017065        3.9256524201       22.3632224256
  C        16.5802293555        2.2676525230       23.6822947695
  H        10.7040677134        9.5818598139       13.3887008347
  C        11.3926620902        8.1064327007       12.1143091817
  H         4.4337394848       -0.7585158000       38.0743784225
  H         3.9397140801       -2.0690328743       37.0449476423
  C         6.0768778462       -1.9214325110       37.3099934339
  H         3.5888629581       -0.5695742890       19.2557658523
  H         3.6305355734       -1.7584102880       18.1881904139
  C         1.6344327648       -1.1571911490       18.6455048543
  H        16.7656245328        2.4864157785       24.7200363853
  H        16.1631870819        1.2831754921       23.5084711334
  C        17.9883753617        2.1868798228       23.0756836882
  S        12.0055599681        6.5706978010       11.7247070234
  C        11.5632362814        9.1166566636       11.1172944655
  H         6.8704605225       -1.2532715913       36.8921131473
  H         6.3582439935       -1.9849897474       38.3908541625
  H         6.0929797950       -2.8579731546       36.9386096302
  H         1.4365618015       -1.8689468282       19.4429547604
  H         1.1112783203       -1.6458134845       17.8252986628
  H         1.0319498120       -0.2745597809       18.7181355895
  H        18.3569953469        3.2390505229       23.0422949773
  H        17.7080237070        1.9366059369       22.0332772968
  H        18.6890618476        1.5051743580       23.5779145521
  C        12.2947580639        7.2093940779       10.1126905920
  N        12.1962693530        8.5579011277       10.0681470213
  O        11.3206148648       10.3573222998       11.2666935323
  S        12.9832292240        6.4052010879        8.7232998648
  C        12.2877565787        9.4077677336        8.8791443856
  H        12.5872266270       10.3941787046        9.1171836305
  H        13.1204064607        9.0017872035        8.2214690478
  C        10.9438329044        9.3913002061        8.1222233189
  H        11.1097870967        9.3224092009        7.0408841581
  H        10.3599891632        8.3992943126        8.3604710509
  H        10.2672709842       10.2728064320        8.1972860386
  H         4.5800675410        1.2454852686       12.7075367682
  C         4.1532318553        2.2393587850       12.5115948395
  H         4.9512078200        2.9775316252       12.5925695572
  C         3.2998255764        2.2163544454       11.2122601721
  C         3.2933434561        2.4605081052       13.7360502647
  C         4.1827151896        2.5104884198        9.9290345260
  H         2.5422020283        3.0802869448       11.1529841065
  H         2.8845865592        1.2416498945       10.9462161466
  H         2.8472911644        1.5227433371       14.1496940760
  H         2.3325621108        2.9380601356       13.6742330518
  H         3.7733300177        2.8902316667       14.5903094077
  C         4.7222224774        1.3763640093        9.1539253962
  H         3.6515300135        3.3189970967        9.3643101923
  H         5.0338665821        3.0924308359       10.1878413219
  C         5.3618450218        1.8415205510        7.7986699377
  H         3.9086594789        0.7136590217        8.7985864388
  H         5.4010035165        0.7495453419        9.7811929495
  C         6.5536714663        2.7884973110        8.0834532277
  H         4.6272284297        2.4456875121        7.2568024239
  H         5.5875661732        0.9720829592        7.1867917164
  C         7.8508663982        2.0565260250        8.6742503928
  H         6.7965170040        3.2585090357        7.1673012312
  H         6.2353131601        3.6730547446        8.7392025726
  C         9.0890361522        3.0609317527        8.8234910451
  H         8.1359380320        1.2726047303        7.9322942401
  H         7.6130237537        1.6550709574        9.6970595506
  C         8.7350039959        4.3169924616        9.6481339223
  C         9.4991041348        3.6606405336        7.5752842449
  C        10.2100764238        2.4387095716        9.6916151188
  C         8.7917181800        5.3871897364        8.8094004178
  C         8.1697224545        4.6953101202       10.8555112068
  C         9.4192961384        5.0007411266        7.6198696407
  C        10.1029015329        3.0705465747        6.4935961775
  H         9.5770712807        1.9786416274       10.5106086054
  H        10.6366707840        1.6262537288        9.1841786167
  C        11.3574254419        3.3930891365       10.0722462155
  S         8.3756157698        6.9026760805        9.4376236780
  C         7.9759075919        6.0567563235       10.9247715944
  H         8.0525233598        3.9424805108       11.7139818306
  C         9.8249763587        5.7224751551        6.5066181633
  H        10.2152666243        2.0207503613        6.4259883360
  C        10.4542566869        3.7475922948        5.4173964086
  H        10.9815846900        4.2845081694       10.5580032658
  H        11.9758495832        3.7801089155        9.2182961968
  C        12.3834954573        2.8115446573       11.0516423603
  C         7.4375826126        6.7614517078       12.1853927131
  C        10.3882244277        5.1306363182        5.3519485992
  H         9.5621178902        6.7510247974        6.4429276159
  C        10.7731174803        3.3594593674        4.1540139121
  H        13.2797049548        3.3795140358       11.1240976960
  H        12.7502259503        1.8912181293       10.6695273439
  C        11.8334168308        2.7302544284       12.4435271236
  C         7.5283783659        8.1864601582       12.4277434126
  C         7.1792802912        5.8560126173       13.3629793393
  C        10.7303557923        5.8321165374        4.1076547333
  C        11.0403336459        4.4573108652        3.3494863558
  S        10.9050417547        1.8741888320        3.3972278342
  H        11.6123410472        3.6899391110       12.9058758910
  H        11.0096998622        2.1162844682       12.3500894507
  C        12.8153016910        2.0499024212       13.3675693078
  N         7.7871832841        9.1509526848       11.4805824758
  C         7.3735817251        8.6267746550       13.6814099648
  C         6.9926060633        6.3530887595       14.6639370379
  H         6.9005067737        4.8789283819       13.1837501852
  C        11.9835443582        6.7180248390        4.2083937481
  C         9.4799591416        6.5806462544        3.4550207744
  C        11.3188286618        4.0994453814        2.0605554522
  C        11.3200346990        2.7043424034        1.9276371017
  H        13.8442218011        2.3204037512       13.1665822768
  H        12.7491826085        0.9341394533       13.3342397152
  C        12.3019257885        2.2592159637       14.7652163129
  S         7.9260512951       10.5578556102       12.2889034451
  N         7.5911789113        9.9854246937       13.7266279644
  C         7.1212774775        7.8325415236       14.8363638382
  H         6.8541157495        5.7571021147       15.4731258369
  H        11.5289361223        7.5675860154        4.7329558581
  H        12.3827056633        6.9708139810        3.1944234416
  C        13.1071443235        6.0141422408        4.9372810859
  H         9.0162448105        7.3324884864        4.2338661521
  H         9.7961121523        7.1418806550        2.6475111628
  C         8.3237381068        5.8383243556        2.9799547920
  H        11.4860411372        4.7446268243        1.3236054135
  C        11.6329614425        1.9405380103        0.7010729611
  H        12.0563143577        3.3215912990       15.0202394663
  H        11.4039135588        1.6142463505       14.8030285858
  C        13.4157431700        1.9333832078       15.7677760320
  C         6.9639259350        8.4450260407       16.1323867902
  H        12.9403634672        5.8016601395        5.9546886942
  H        13.2287528985        5.0716858678        4.4361683759
  C        14.5085205572        6.5662089629        4.8273680831
  H         7.7278958247        5.2738771366        3.8029963680
  H         8.6568405580        5.0701968660        2.3296212451
  C         7.3605187069        6.6393157265        2.0996956980
  C        11.6874441981        0.5512529299        0.6119165160
  C        11.9730801703        2.6611341062       -0.5810214577
  H        14.1199782218        2.6668341170       15.4495154496
  H        13.7980750374        0.9169637042       15.5888129781
  C        12.8462673463        2.2196649723       17.1945519705
  H         7.2617376751        9.4298217166       16.0910558901
  C         6.6465368355        7.9763979400       17.3363291729
  H        14.6593381531        6.9796095456        5.8427870515
  H        14.5887618201        7.4456118206        4.1650864919
  C        15.5791346738        5.4025822963        4.5781662991
  H         7.2020998070        7.5499269532        2.7219506733
  H         7.7324123075        7.2298596384        1.2425456648
  C         6.1264621546        5.7345394287        1.7055950440
  N        11.4500661314       -0.4326700635        1.6382601389
  C        12.0215047799       -0.1466548988       -0.5390639045
  C        12.3442170089        1.9743378365       -1.7281569081
  H        12.0278157404        3.7922279329       -0.5366343816
  H        12.0862967146        1.5776082674       17.3680254027
  H        12.4323992769        3.1583364030       17.3599304137
  H        13.5898468284        2.0876231998       18.0554687080
  S         6.2895880288        6.4398249455       17.8888425982
  C         6.5574964873        9.0142289281       18.4397467998
  H        15.4517679982        4.5211047269        5.2103875050
  H        15.6191028890        4.9675066915        3.5935584596
  C        16.9829137418        5.7828665087        5.1269169860
  H         5.6294258143        5.1796502172        2.5492934607
  H         6.4925487795        4.9409067856        1.1418236708
  C         4.8943214052        6.5369104587        1.1257066000
  S        11.7835197862       -1.9612002834        1.0899391156
  N        12.0520053571       -1.5224491020       -0.4766253814
  C        12.2903123629        0.4877371029       -1.7843732328
  H        12.5341923237        2.5131549579       -2.6369523578
  C         6.1278851309        7.0913992188       19.4792301660
  N         6.2359668202        8.4772597211       19.6066873396
  O         6.7694717587       10.2281531763       18.2531076627
  H        17.7560742574        5.3273540164        4.5148037358
  H        17.1124807682        6.8249275237        5.1617829060
  C        17.1535655067        5.3503134588        6.6357940472
  H         5.2450752015        7.2518514324        0.5641294532
  H         4.2433283689        5.9020965827        0.5739878444
  C         4.0489106177        7.1986921837        2.2216633318
  C        12.5501690670       -0.2198506155       -3.0095330928
  S         6.1091654638        6.2577144749       20.9980637386
  C         6.1618602239        9.1663275872       20.8272367515
  H        16.2253535974        5.7730935640        7.1784963393
  H        17.0232454009        4.2566766360        6.8683596370
  C        18.4064267248        5.9163844949        7.2788268568
  H         4.6058041079        7.6733013637        3.0174518170
  H         3.3704969846        6.4783460833        2.6264501644
  C         3.1931631375        8.3281437857        1.6793458843
  H        12.3281030797       -1.1774485105       -2.8239158584
  C        13.0761884561        0.0928290511       -4.2334595736
  H         5.5484454734        8.6686739165       21.5486733672
  H         5.7225431336       10.1274229725       20.5789586449
  C         7.5714482084        9.3729282929       21.4271703801
  H        18.4702630672        5.5941441400        8.3296718793
  H        18.2653347432        6.9368046960        7.2902950455
  C        19.7098565639        5.6278211672        6.6680684315
  H         2.9730004102        8.1420074536        0.5757276098
  H         2.2649879844        8.5287149578        2.2050652334
  C         3.8818397095        9.6441188360        1.8477595126
  S        13.5313275573        1.6267754185       -4.7549391996
  C        13.1744489175       -1.0142666799       -5.2332980419
  H         7.7199860680        8.9499925988       22.3611555946
  H         8.1007737173       10.3970788284       21.5030194674
  H         8.2846633316        8.8504721919       20.8276035003
  H        19.8250054977        6.0866919310        5.7027560261
  H        20.5996463439        5.9322086716        7.1882473838
  H        19.7622781775        4.5357923489        6.6834125682
  H         4.2719757619        9.7371133283        2.8739455823
  H         4.7373615783        9.7270024105        1.2111993924
  H         3.3301317986       10.6317922945        1.6047975297
  C        14.0626961277        0.8175843209       -6.2862898064
  N        13.9204899874       -0.5494536504       -6.2524248651
  O        12.9216526212       -2.1797342037       -5.1044133011
  S        14.8929937596        1.5264667424       -7.6091082695
  C        14.2346512977       -1.3565548342       -7.3636445257
  H        14.5619515305       -2.2634580632       -6.9195323905
  H        15.1333517995       -1.1758838188       -7.8381614093
  C        13.0619559976       -1.8032000850       -8.2017681988
  H        13.2567505543       -1.3936121092       -9.2436609797
  H        12.2571784296       -1.1192710115       -7.9567595333
  H        12.9039181635       -2.8657220869       -8.0298839182
