352
 i =   128100, time =    64050.000, E =        99.0374737202
  H        10.5077468638        6.4336243607       30.9542366675
  C        11.5460454962        6.2152356635       31.3480210427
  H        11.8726669295        7.1880199259       31.7863799382
  C        12.5749480287        5.9367313909       30.2397656568
  C        11.6034673708        5.1026236276       32.3791933729
  C        12.2604372392        4.7023321286       29.4362247549
  H        12.7304028767        6.8170752262       29.5907353716
  H        13.5015190642        5.8639198422       30.7814172142
  H        10.7966862729        4.4348136749       32.0747643400
  H        12.5838347228        4.6125585963       32.6158693292
  H        11.1996300887        5.4481912216       33.3140740721
  C        12.1308313772        5.0012095332       27.9224631970
  H        11.3157925720        4.3165205285       29.8330766678
  H        13.0673349745        3.9917949087       29.5418096140
  C        10.9594730877        5.8191953987       27.6188337892
  H        13.0109998860        5.4966729173       27.5791099244
  H        12.1150165959        4.0411563102       27.4553764905
  C         9.8728760309        5.1639275662       26.7459361691
  H        11.2953565788        6.7342187931       27.2114716339
  H        10.3494916447        6.1404280732       28.4639167461
  C         8.7376262547        6.0790915290       26.2382831360
  H        10.3997452106        4.8100730833       25.8555800324
  H         9.4597127915        4.2530973783       27.2890450755
  C         7.5275447906        5.4051913035       25.5394506831
  H         8.3472223693        6.7180469065       27.1145229569
  H         9.1499471541        6.8610701459       25.4835848857
  C         7.1971354436        4.0961500026       26.1877289470
  C         7.9248389842        4.7444925180       24.2775726982
  C         6.3570644836        6.3382690137       25.4251894755
  C         7.3033960471        2.9792080366       25.4075145450
  C         6.6563740279        3.7603951338       27.4394130754
  C         7.7216087087        3.4067235606       24.1172530061
  C         8.3985234117        5.3566150891       23.1033974993
  H         6.6144045615        7.1704744344       24.7745014198
  H         6.2338323132        6.7361538028       26.4276783108
  C         5.0842325808        5.7390071136       24.8451119080
  S         6.6517932307        1.5148344368       26.0222743084
  C         6.4966144287        2.4055711472       27.5627625063
  H         6.3623670355        4.5588009988       28.0636926207
  C         7.9733569486        2.8042210754       22.9353441732
  H         8.5166592542        6.4133742058       23.2849127006
  C         8.5722817306        4.7175179570       21.9121836144
  H         5.1972567225        5.4150187632       23.8058713344
  H         4.7951356124        4.8155479053       25.3653893365
  C         3.9154745743        6.7855911105       24.9026650577
  C         5.9919397363        1.6271741571       28.8071447603
  C         8.4170599231        3.3791966011       21.7744184441
  H         7.8355139104        1.7205133624       22.9017103307
  C         8.9693133600        5.0544781829       20.6232504095
  H         3.1025102248        6.5057485751       24.2218091328
  H         4.2642547526        7.7617617158       24.5670000145
  C         3.2374521710        6.8488240076       26.2848381352
  C         5.9039629452        0.2180987477       28.9682079248
  C         5.6028501279        2.4236827083       29.9999738733
  C         8.7001248320        2.6948892932       20.5112678461
  C         9.0863719722        3.9374634546       19.8056379558
  S         9.3565898627        6.4790412581       19.8258080186
  H         2.5534902907        7.6736777728       26.3365428826
  H         3.9824876922        7.1013068172       27.0546901129
  C         2.6727885039        5.5807887553       26.8023808571
  N         6.2065905222       -0.7818988131       28.0068091316
  C         5.5691650778       -0.4001138853       30.1553048190
  C         5.2585915361        1.8730933647       31.1698001009
  H         5.6873439332        3.5293399336       29.9214631267
  C         7.3454312128        1.9478282315       19.9349780325
  C         9.9020556827        1.8001364995       20.7105184525
  C         9.2643229790        4.3153136674       18.4615305136
  C         9.4600136530        5.6868214560       18.3068916194
  H         2.0255182407        5.1283615365       26.0783418173
  H         3.3883038418        4.8203951860       27.1167012793
  C         1.6567655532        5.8037563462       27.8804973172
  S         6.1296438452       -2.2258772252       28.7197519902
  N         5.5924066359       -1.8090826085       30.2200283792
  C         5.3499171431        0.3385881765       31.3466238760
  H         5.0878352978        2.4538856215       32.0164427527
  H         7.1951198365        1.0149136677       20.4855005313
  H         7.4856642058        1.5968306797       18.9591272893
  C         6.0787378623        2.8414017671       20.0013070611
  H        10.0243155335        1.2217133926       19.7941129744
  H         9.7905141057        1.1604063681       21.5541549427
  C        11.1511659872        2.6726277829       20.9511332686
  H         9.3269494512        3.5372434974       17.6644376887
  C         9.8211519653        6.4918379226       17.1131208399
  H         0.8858175887        5.0223322838       27.7745684485
  H         1.0913507998        6.7064778919       27.6305003917
  C         2.1681207040        5.9482601206       29.3294408859
  C         5.2335264306       -0.3729903065       32.6063670246
  H         6.2404560161        3.8127780215       19.5289252448
  H         5.9167210021        2.8958996235       21.0304560236
  C         4.8566205949        2.2001118316       19.2910948905
  H        10.9721039942        3.5033491813       21.6319643097
  H        11.4168532937        3.2326198352       20.0427678674
  C        12.2559071035        1.8373280483       21.4660127645
  C         9.9120637025        7.9087477398       16.9360877771
  C        10.0335663863        5.6840893719       15.8334743444
  H         2.0651255732        6.9671368526       29.7484122153
  H         1.5267065720        5.3595161778       29.9382731330
  C         3.5947502984        5.4830404571       29.5034080595
  H         5.5295543148       -1.3474781514       32.5829605082
  C         4.9715245614        0.1379634942       33.8514702449
  H         3.9809411459        2.6884168215       19.8209324500
  H         4.8605422299        1.1189484950       19.5102716146
  C         4.8799779787        2.5763223913       17.8399791590
  H        11.9845898776        1.2019911071       22.2994560531
  H        12.6615734601        1.0809474861       20.7710805392
  C        13.3822018007        2.7177378515       21.9064867033
  N         9.6185277319        8.8570312997       17.8906412192
  C        10.0708659288        8.4860709833       15.7228085004
  C        10.3875789213        6.2950670011       14.6990488746
  H        10.1085420867        4.6296662478       15.9319458581
  H         3.6143195906        4.4646587645       29.1281523868
  H         4.2114267855        6.1088901501       28.8767430193
  H         3.8934367452        5.5560108945       30.5605249091
  S         4.6198957774        1.6872947968       34.4563279972
  C         4.8254750572       -0.9741199054       34.8849332188
  H         5.0542793923        3.6415795738       17.7493100157
  H         5.6742381864        2.0197601074       17.3352528540
  C         3.4999589835        2.3371602857       17.2008283102
  H        12.8488242885        3.4513526377       22.4915201740
  H        13.9205094309        3.1790580457       21.1097569846
  C        14.5556479414        2.0257437849       22.6837301477
  S         9.5544805731       10.3543891190       17.2722750139
  N         9.9915471125        9.8790181428       15.8047291963
  C        10.4684457822        7.7647720397       14.5629731688
  H        10.6313718868        5.7802437529       13.7776236742
  C         4.3345221231        0.9413384479       35.9971312049
  N         4.4447429024       -0.3963742013       36.0651110052
  O         5.0250606410       -2.1820653064       34.6705191249
  H         3.4403907955        3.0579184094       16.2817371085
  H         2.6264976584        2.4360421354       17.8284744031
  C         3.4471026372        0.8236694517       16.7490126595
  H        14.2621572816        1.5533564749       23.6479700551
  H        15.0399800285        1.2532180289       21.9881101322
  C        15.6075360120        3.0902438093       23.0037509354
  C        10.9061801609        8.4612829189       13.4329659109
  S         3.7468183809        1.7839750139       37.3880174030
  C         4.4973422563       -1.2360492378       37.2656351270
  H         2.8044744519        0.8891611207       15.8184487014
  H         4.3920571605        0.3029602807       16.5105547743
  C         2.6241088216       -0.0288892658       17.8231901806
  H        15.2560303090        3.6749408295       23.9386849910
  H        15.6099115008        3.8018314816       22.1418181356
  C        17.0233638996        2.4776767971       22.9938459626
  H        10.7555939272        9.5113824611       13.5110025264
  C        11.4991055708        8.1546630566       12.2454125137
  H         3.7906161624       -0.9279068433       38.0770071280
  H         4.2442026249       -2.2805150442       37.0625445882
  C         5.9107734259       -1.0721401900       37.9159498859
  H         1.7022313368        0.5058100889       18.2276849048
  H         3.2283229529       -0.1510438536       18.6974085723
  C         2.1497070538       -1.4201118300       17.3040275148
  H        17.0575126758        1.6673920528       22.3260354824
  H        17.6411045363        3.2981252044       22.6813603945
  C        17.2557438990        1.9434997771       24.4093183157
  S        12.1713644254        6.6981465934       11.7529876036
  C        11.6646086913        9.2634850157       11.3147425466
  H         6.7094453462       -1.3692262091       37.2676959036
  H         6.0211500452        0.0081086040       38.1641414453
  H         5.9676828152       -1.6465603618       38.8450731722
  H         1.1596590621       -1.2833672482       16.8600613258
  H         2.1323201452       -2.0852089537       18.1827585422
  H         2.7460266181       -1.7270067234       16.4133027628
  H        18.2791903225        1.7807979043       24.5966016865
  H        16.7890476671        0.9623106650       24.5997926703
  H        16.8923440305        2.6403795666       25.1571097746
  C        12.5572526756        7.5155736612       10.2761598215
  N        12.2648561085        8.8284008134       10.1915612461
  O        11.2894996180       10.4227488591       11.5105719129
  S        12.9874306096        6.6862243025        8.7935640982
  C        12.3021151106        9.7318793283        8.9526619736
  H        12.2851769473       10.7552290453        9.2852138221
  H        13.3816596862        9.5495907702        8.5171243227
  C        11.1154871885        9.3757269385        7.9235657566
  H        10.8413991113        8.3508044036        8.0172586666
  H        10.2871220224        9.9969462326        8.2025276889
  H        11.2334023238        9.5383537699        6.8334244063
  H         2.5429763403        1.8340041665       12.4838661735
  C         3.5518887812        2.0733790966       11.9775438713
  H         4.0512757406        1.1458173115       11.6827081018
  C         3.1699160424        2.8823333455       10.7337930386
  C         4.4159429156        2.6587714731       13.0635903430
  C         4.3241315451        3.0514956503        9.8075475438
  H         2.8483112640        3.8322652510       11.1338187139
  H         2.4902142692        2.2026070239       10.2431553043
  H         3.8553231948        2.6326475848       14.0287856010
  H         4.7399232611        3.6764841276       12.7430306840
  H         5.2901996755        2.0797702355       13.1809226499
  C         4.8064791829        1.7548096313        9.0993180056
  H         4.2110061428        3.9148306454        9.0681050493
  H         5.1398016036        3.3371167422       10.4268756429
  C         5.6697200438        1.9128093602        7.8477419955
  H         3.8875674874        1.2367814118        8.6768062149
  H         5.2851129064        1.1236700312        9.8813459960
  C         6.9126288988        2.8023355584        8.0943114258
  H         5.0354438906        2.4069152176        7.1313359481
  H         5.9114829849        0.9386731911        7.3714893294
  C         7.9400822494        2.0660087707        8.9518270756
  H         7.4107812851        2.9458218488        7.1837630332
  H         6.6300725522        3.7868002697        8.4561358112
  C         9.1622879188        2.9951622784        9.1684865407
  H         8.3538661034        1.1495681702        8.5419384150
  H         7.5630917502        1.7245949272        9.9280203135
  C         8.7740896757        4.3262621147        9.7833455547
  C         9.7156698955        3.6383395535        7.9588786506
  C        10.3322765987        2.2504195637        9.9110989256
  C         9.0678706405        5.4103266952        9.0204104173
  C         8.2606660567        4.6985382836       11.0310080928
  C         9.6257419343        4.9661130928        7.8158985324
  C        10.2862554053        3.0155080642        6.8604455071
  H        10.0416616298        1.9426247760       10.9518639902
  H        10.5126323593        1.3042672483        9.4581496228
  C        11.6466548747        3.0243768416       10.0976730694
  S         8.5579523032        6.9004921813        9.7102438151
  C         8.0683183590        6.0413412344       11.1319170231
  H         8.1733351293        3.8960899614       11.7844311000
  C        10.1006426229        5.6618602893        6.7341610724
  H        10.4287330578        1.9067268492        6.8324196740
  C        10.6621945357        3.6660349930        5.6975395182
  H        11.4259508133        4.0734419300       10.4358606538
  H        12.2405682579        3.1518891056        9.1726891390
  C        12.6320480599        2.4079082647       11.1321947290
  C         7.6660047237        6.6913649132       12.4554203301
  C        10.6218027141        5.0270920101        5.5936654917
  H         9.9154653530        6.7527971534        6.7103174323
  C        11.1443027740        3.3053524349        4.4770397178
  H        13.4958847169        3.0776651786       11.1110772260
  H        13.1338160087        1.4634770232       10.7787626962
  C        12.0847613293        2.3709117279       12.6154354707
  C         7.5167234234        8.1097541516       12.6787064841
  C         7.1221334766        5.8149853053       13.5607104955
  C        10.9833114645        5.7338764599        4.2330268707
  C        11.2855781726        4.3809911822        3.5849058508
  S        11.3046249549        1.8237182346        3.7309380001
  H        11.4325436148        3.2082794396       12.8725332722
  H        11.4831071744        1.4735785691       12.6708008800
  C        13.1619852496        2.5185899161       13.7839544782
  N         7.8393401325        9.0625277135       11.7532677968
  C         7.2910989059        8.5985225725       13.9599750807
  C         6.8414506327        6.3677070589       14.8255089860
  H         7.2313685016        4.7615534777       13.4359474156
  C        12.3354181439        6.4685652575        4.5219220435
  C         9.7930266766        6.6665375406        3.6719070755
  C        11.5407933299        3.9613375733        2.2689381759
  C        11.5503794035        2.6162587307        2.1917715172
  H        13.7976257999        3.3725000411       13.5203711400
  H        13.8097915415        1.6285838300       13.7136317086
  C        12.4518346717        2.5544294426       15.1378002489
  S         7.8497095411       10.5407100479       12.5289670352
  N         7.3608646476        9.9787825646       13.9848961418
  C         6.8931613042        7.8095240775       15.0528826943
  H         6.7915235932        5.7717464145       15.6819075351
  H        12.1665156663        7.2765181801        5.2285056202
  H        12.7844524727        6.8180062215        3.5997471046
  C        13.3426168029        5.4913379460        5.1494729508
  H         9.4186457960        7.1564063350        4.5332639676
  H        10.1433387079        7.4573554890        2.9245477228
  C         8.5765117173        5.8008438715        3.1236167940
  H        11.6606435891        4.7967813920        1.5680432495
  C        11.8229985712        1.7977281058        0.8974756572
  H        12.0843776493        3.5991535289       15.3177925632
  H        11.6525830093        1.8338662903       15.2483246481
  C        13.3457941360        2.0727027884       16.1980333031
  C         6.7980865246        8.4835241446       16.3082255359
  H        13.0098159852        5.3054678232        6.2297598174
  H        13.5206187946        4.5955782962        4.6027135106
  C        14.7748269425        6.1049210958        5.1295793052
  H         8.3943599896        4.9851806042        3.7939966491
  H         8.9089939592        5.3251615123        2.1887656087
  C         7.3441890467        6.6402520619        2.8176424429
  C        11.8676573578        0.3614927884        0.7874565140
  C        11.9271655681        2.5381303943       -0.4318613747
  H        14.2340561506        2.7027000825       15.9652627358
  H        13.6986954487        1.0453875290       16.0046055813
  C        12.7368640108        2.2654505295       17.5616832071
  H         7.2768253629        9.4503406099       16.3664577169
  C         6.4393372465        8.0408639434       17.5863259873
  H        14.6931705490        7.1203643406        5.4524823254
  H        15.3270454663        6.2054019339        4.1574381088
  C        15.5607422946        5.2411239955        6.1527918912
  H         7.0423630540        7.2407652987        3.6944491073
  H         7.6836877314        7.3564901403        2.0848319343
  C         6.2345371479        5.8690125355        2.2006594069
  N        11.5890296144       -0.5127001464        1.8573953037
  C        12.1500165818       -0.3216705307       -0.4027511657
  C        12.3281397552        1.8374969346       -1.5953799588
  H        11.8945817362        3.6584956332       -0.4633943187
  H        11.7827051754        1.7296633584       17.6441713452
  H        12.5659827625        3.3302907282       17.7103659923
  H        13.4729989094        1.9502542956       18.3705897093
  S         5.8782149334        6.4837422542       18.0203969384
  C         6.4681588458        9.0257779503       18.6643173177
  H        15.2920320805        5.4124114762        7.1699611414
  H        15.3720645686        4.1842190760        6.0108997202
  C        17.0646176420        5.6339454839        6.1190608606
  H         5.7464620760        5.2892574891        3.0079035741
  H         6.6021543208        5.1336717910        1.5026267533
  C         5.1768562249        6.5938968856        1.4287623421
  S        11.9206992320       -2.0681145789        1.3137248119
  N        12.2414993897       -1.7101894443       -0.1957979687
  C        12.4555665418        0.3495988968       -1.5868096847
  H        12.5447066347        2.3885923450       -2.4658697952
  C         5.8794967125        7.1448199740       19.6564608715
  N         6.0744961326        8.4632651295       19.7783305961
  O         6.7727997820       10.2249312021       18.5236444361
  H        17.5175307854        5.4647839154        5.1287539888
  H        17.1418802162        6.7262037798        6.2392011779
  C        17.8558271542        4.9196729970        7.1986817805
  H         5.6470579972        7.0881468764        0.5463721841
  H         4.4350654695        5.8692324604        1.0790618517
  C         4.4211805538        7.6868650456        2.1820398332
  C        12.6763790820       -0.4515884927       -2.7304431397
  S         5.7448801839        6.1868723803       21.1685663443
  C         6.0237261885        9.1177254546       21.1089975932
  H        17.2778766279        4.6023063167        8.0396595438
  H        18.1834234821        3.9607793973        6.6498961046
  C        19.1486790751        5.7670588570        7.5022232411
  H         4.8980510670        7.9348566966        3.1036248919
  H         3.4185113262        7.2867038756        2.5264674666
  C         4.2484547534        8.9038113599        1.2416261475
  H        12.3025084624       -1.4139794746       -2.5952214647
  C        13.3229325164       -0.2400119592       -3.9651105570
  H         5.3221367183        8.5514464877       21.7840417246
  H         5.6383573250       10.0993516507       21.0099198722
  C         7.5064620581        9.0673550654       21.7122965487
  H        19.8920730553        5.0903983002        7.9999355338
  H        18.9270210486        6.6098144231        8.1298242417
  C        19.9561654907        6.2581583212        6.2727224353
  H         4.3006969863        8.5778692696        0.1798223338
  H         3.2235347296        9.1868876613        1.3372980451
  C         5.1960335229        9.9993518913        1.5795249673
  S        13.8855758511        1.2248467433       -4.5875712189
  C        13.5133781408       -1.4626882535       -4.7899271243
  H         8.3537612780        9.5606107034       21.1280380627
  H         7.8769487418        8.0158883249       21.8667499954
  H         7.4290030846        9.6005089858       22.6650978321
  H        19.5880060219        7.0534803793        5.7329757818
  H        21.0336440511        6.5289747532        6.5307915848
  H        20.0301995523        5.4461093238        5.5848478353
  H         5.3446291090       10.1883167740        2.6900841185
  H         6.2469155886        9.7775669137        1.2566162710
  H         4.9028323110       11.0036025836        1.3802626589
  C        14.4309753035        0.2842394519       -5.9013901853
  N        14.1696471393       -1.0723844696       -5.8795936075
  O        13.1667455238       -2.5113621703       -4.4144808684
  S        14.9078994202        0.9258701694       -7.4304850248
  C        14.4694896233       -1.9738703128       -6.9778152127
  H        14.7917122258       -2.9092490629       -6.6651100741
  H        15.2526247017       -1.5763069426       -7.5691209614
  C        13.2853908050       -2.1896259455       -7.9084478681
  H        12.4565080262       -1.5488029063       -7.6950223134
  H        12.8485863588       -3.2030660079       -7.8576380771
  H        13.5122655658       -1.9816095437       -8.9073871993
