352
 i =    82800, time =    41400.000, E =        99.3074481221
  H        12.3411731327        6.8509014987       32.6539354832
  C        11.8000674246        5.8969767687       32.6408462755
  H        12.5451286750        5.0735696590       32.3142506727
  C        10.6966933967        5.8777495795       31.4834839618
  C        11.0269429688        5.4436802879       33.9163903749
  C        11.3374900957        5.7403514777       30.0496858617
  H         9.9675656115        5.0208625564       31.5337185294
  H        10.2608623434        6.8307362829       31.4896053898
  H         9.9657520324        5.8168439374       33.8556340889
  H        11.1060355060        4.3552502909       33.9491734371
  H        11.4414035177        5.8977122872       34.8573196128
  C        10.3144135552        5.3238838884       29.0152954874
  H        12.0694794082        5.0176742372       30.0499751878
  H        11.7766742962        6.7001361388       29.8063490582
  C        10.6703298951        5.5090490813       27.4759649313
  H         9.9584021628        4.3370429044       29.1527811378
  H         9.3489716278        5.7926012663       29.0726021512
  C         9.5606385795        4.9192996898       26.5673396970
  H        11.6754327689        5.0606543352       27.2321985507
  H        10.7946027477        6.5548964029       27.2055960578
  C         8.3403808104        5.7545791151       26.1795402398
  H        10.0827219929        4.8693512131       25.6306709969
  H         9.4076117540        3.9632404795       26.8691459255
  C         7.0780518359        5.1163176757       25.5232800660
  H         7.9673082167        6.2067579004       27.0685305161
  H         8.7460671435        6.5385432727       25.5842620010
  C         6.7958601152        3.7556313759       26.2204890008
  C         7.4360109399        4.4147244402       24.2683933151
  C         5.8194527512        6.0365534908       25.4695345158
  C         6.9139927357        2.6333400008       25.4113673229
  C         6.6101407591        3.3991335753       27.5537617138
  C         7.3014028159        3.0548721005       24.1249358788
  C         7.9700602601        5.1275059515       23.1919640066
  H         6.1465179977        7.0375890274       24.9605458884
  H         5.5447528405        6.5030791819       26.4445070286
  C         4.5866500573        5.3773718888       24.8574195770
  S         6.6277819827        1.1569166236       26.1491324761
  C         6.2797935495        2.0208488097       27.6452955333
  H         6.4692688457        4.1794881801       28.2736061703
  C         7.7156405299        2.4653198398       22.9422514859
  H         8.1772251431        6.2202532700       23.1827373494
  C         8.3536970301        4.4737791407       22.0183534330
  H         4.9631123827        5.0616068127       23.8531768679
  H         4.3036928584        4.5064264083       25.4085757792
  C         3.3552021451        6.2088216897       24.7014504875
  C         5.8007790923        1.2667430567       28.8782157557
  C         8.2878275746        3.1030080541       21.8557043030
  H         7.7622043280        1.3766397862       22.8233884550
  C         8.8394240623        4.8850384856       20.7747265604
  H         2.7484514834        5.8508718830       23.8564275439
  H         3.6388343162        7.1921813174       24.3438238005
  C         2.6081520479        6.4063498010       26.0865953449
  C         5.7014045535       -0.1297746048       29.0430779939
  C         5.2490271327        2.1084759717       29.9895930028
  C         8.9044653264        2.4992871210       20.5645504548
  C         9.1783953739        3.8520564631       19.9638845984
  S         9.1938260440        6.4415369050       20.2238526761
  H         1.7769013950        7.1084275502       26.0255232279
  H         3.2951404028        6.9097559617       26.8375474171
  C         1.8957460198        5.0941708340       26.6154645073
  N         6.0651864692       -1.0433661351       28.0832230007
  C         5.3826289800       -0.6849702370       30.2170344066
  C         4.8618878252        1.4943419780       31.1989683220
  H         5.1550239684        3.1405181283       29.8849917861
  C         7.8174387400        1.7119016934       19.8436212335
  C        10.1334890256        1.6773227132       20.8433396325
  C         9.7802419614        4.3658551283       18.7646671465
  C         9.8016480167        5.7646948810       18.7221759802
  H         1.1700224996        4.7213346531       25.9158186578
  H         2.6275076590        4.2821219267       26.7618009430
  C         1.2950095367        5.3408644241       28.0201563966
  S         5.8738945786       -2.5369507901       28.6573125405
  N         5.4832553789       -2.0434412369       30.2118571951
  C         5.0269854848        0.0429564961       31.4050912053
  H         4.4839440203        2.1284689071       31.9704887406
  H         7.5200880808        0.7628003411       20.3304230072
  H         8.3870535647        1.2590734777       19.0941508344
  C         6.4828966233        2.4056324336       19.3480327118
  H        10.3474735224        1.0215167098       19.9783207012
  H         9.8940947092        0.9353232602       21.7022802340
  C        11.4093062358        2.4366191798       21.0689519388
  H        10.0815820109        3.6410423483       18.0342078975
  C        10.0710475176        6.6136235940       17.4739992195
  H         0.5786739290        4.4856697774       28.0623649797
  H         0.6262675208        6.2493665841       28.0639234658
  C         2.3278885246        5.3698666332       29.0766329484
  C         4.8793979000       -0.6426832572       32.6688064271
  H         6.4894970370        3.4316288387       19.6007372478
  H         5.6562375953        1.9981759984       19.9436347093
  C         6.2065758851        2.0070520485       17.9620529057
  H        11.2596755564        3.2154562412       21.8342797323
  H        11.7235383935        3.1215055580       20.1973470144
  C        12.5495992085        1.5899450810       21.6195017535
  C        10.1524947533        8.0515539174       17.3638253554
  C        10.1004389575        5.8674885101       16.1315000282
  H         3.0310837152        4.5116737243       29.1197424320
  H         2.9145214672        6.2389159780       29.1391492888
  C         1.5659547759        5.3761100126       30.4492532782
  H         4.9464963396       -1.6691422320       32.5920714577
  C         4.5221098715       -0.1831305829       33.9222119890
  H         6.6375440620        1.0599543359       17.8036461073
  H         6.4560615149        2.7280981395       17.1969054234
  C         4.7088483720        1.8371133998       17.8675977877
  H        12.3323742602        1.0177760973       22.5411582710
  H        12.8511008179        0.9316046521       20.8250575646
  C        13.9515850485        2.2035496799       21.8395029637
  N         9.8353916098        8.9580667561       18.4192094777
  C        10.3278070768        8.8122954800       16.1864358967
  C        10.4161710388        6.6323747432       14.9891075534
  H         9.9798374956        4.7987405333       16.0295352580
  H         0.8350126769        4.5681731418       30.4002755922
  H         2.1433062469        5.2014315498       31.3800198760
  H         1.0437796817        6.2788622718       30.6125805485
  S         4.2516669220        1.4754025714       34.4244909681
  C         4.4770502713       -1.2512918445       34.9586667767
  H         4.2419821887        2.6581875804       18.4548983989
  H         4.4110935391        1.9864316963       16.8298521840
  C         4.1693829810        0.4648715765       18.3236957575
  H        13.9691423458        3.1556068867       21.2798279810
  H        14.7382083091        1.6500234614       21.3942687477
  C        14.2512265174        2.5393874668       23.3160842383
  S         9.8586654477       10.5363429294       17.9162469603
  N        10.3359252924       10.2180676492       16.4089997003
  C        10.4506030025        8.0999427711       14.9736630168
  H        10.2933485489        6.3077866278       13.9983167056
  C         4.0784368078        0.7161875528       36.0638189813
  N         4.1861033286       -0.6548181635       36.1190317647
  O         4.7094405799       -2.3974231868       34.7529111615
  H         4.6097613890        0.2887810896       19.3229498905
  H         4.5011208192       -0.3654161741       17.6753593901
  C         2.6592434198        0.4782520680       18.4274386168
  H        13.4879335450        3.2510811698       23.6727214408
  H        14.2849482031        1.7493397053       24.0473190710
  C        15.4588946908        3.4576138407       23.3490326040
  C        10.7615384520        8.8515487633       13.7857211240
  S         3.7968459708        1.6162589990       37.5707619973
  C         4.0303607906       -1.4598507695       37.3420989160
  H         2.3355166636        1.2010718978       19.1595620099
  H         2.3516672864        0.7395741086       17.3871420027
  C         1.9818409921       -0.9198155966       18.8310116551
  H        15.4054043339        4.0025349725       24.3588847438
  H        15.3031453777        4.1978791695       22.5351837756
  C        16.8436048168        2.7105980888       23.0472362351
  H        10.4491281043        9.8371120371       13.8776049140
  C        11.3085252742        8.4640971463       12.5619384570
  H         3.4616421317       -0.9924844902       38.1859228292
  H         3.5761855390       -2.4293144273       37.1049847699
  C         5.4618424367       -1.6539441682       37.9247356401
  H         0.8817035631       -0.8587046117       19.0129139289
  H         2.3992379221       -1.3274124219       19.7490798206
  C         2.1300918639       -2.0580739522       17.8574311543
  H        16.5926778138        1.9237332041       22.3870816229
  H        17.4426495459        3.3847339838       22.5648828142
  C        17.4123317341        2.1812711620       24.3059385911
  S        11.9968656190        6.9605326362       12.1272780499
  C        11.2784772557        9.5264232398       11.5187559295
  H         5.4381215884       -2.3185127256       38.7695836046
  H         6.0456209360       -2.2012146641       37.1804317571
  H         6.0110549370       -0.7027491009       38.0920440134
  H         1.8481145862       -1.7490024160       16.8344917386
  H         1.5700930646       -2.9943931748       18.1182206768
  H         3.1945182337       -2.3318945854       17.7304572930
  H        17.3074892405        2.7776674716       25.1727678490
  H        18.4493218408        1.9829227605       24.2063275023
  H        16.9656751567        1.1825759551       24.4527318827
  C        12.1802934230        7.7167414210       10.5944498582
  N        11.9222172967        9.0347572163       10.4672056060
  O        10.7863936853       10.6456346120       11.6943482960
  S        13.0784414531        6.9484946933        9.2685891211
  C        12.0363824082        9.8207632253        9.2846495718
  H        12.0393488132       10.8130741576        9.6693452858
  H        13.0224801390        9.7323925592        8.7236515255
  C        10.7975677202        9.6684509017        8.4690741614
  H        10.9663156506        9.9912307510        7.4613700903
  H        10.5197819883        8.5427765084        8.4011233729
  H         9.9997979134       10.1935621589        8.9557410227
  H         2.5906085763        0.9127913661       12.5355502968
  C         3.3526628618        1.6482845864       12.6674036816
  H         4.1963494030        1.0164270642       12.7557130437
  C         3.3442516086        2.6197989967       11.5023269700
  C         3.2616280466        2.4168980018       14.0181519559
  C         4.5848430680        2.6193214551       10.7587116163
  H         3.2411225364        3.7150020653       11.7611583613
  H         2.4669279127        2.3177841701       10.8086048590
  H         2.7500006587        1.9124595928       14.8545664339
  H         2.7363124495        3.3239274578       13.9771728213
  H         4.2663987117        2.7124633794       14.2421157028
  C         4.8263390441        1.3293937015        9.9948955450
  H         4.4516158577        3.3927623984       10.0172833560
  H         5.3896233857        2.8205015006       11.4367151185
  C         5.4926472646        1.5381931730        8.6924436077
  H         3.8287181804        0.8925877530        9.7844942220
  H         5.3820512070        0.5810107002       10.5167224744
  C         6.7776543636        2.3997699826        8.7375133295
  H         4.7793577450        2.0128594044        8.0374167514
  H         5.7823399758        0.6177952014        8.1993701881
  C         8.0653099333        1.8247967078        9.4883922609
  H         7.0448689929        2.4190718163        7.6737429485
  H         6.5227906974        3.3465202702        9.1250703654
  C         9.2833857092        2.8854610493        9.5104301785
  H         8.4813904914        0.9558704168        8.8770632515
  H         7.8329164627        1.4789920497       10.4666610009
  C         8.8600862469        4.1574971651       10.1499806948
  C         9.6044193858        3.5372185705        8.2572787336
  C        10.5721718722        2.0930072047       10.0421068985
  C         9.0590953648        5.2627955776        9.3503385711
  C         8.4642220488        4.4769635582       11.4787394157
  C         9.5355595407        4.8627459774        8.1465011007
  C        10.0225955031        2.8949458626        7.0918952715
  H        10.1297259811        1.6199872399       10.9598075148
  H        10.7519765594        1.1932277122        9.3383951862
  C        11.7635484207        3.0563181408       10.2765868663
  S         8.6608999600        6.7098195656       10.1533694557
  C         8.2884868476        5.7974546700       11.5929707745
  H         8.4391397655        3.6628619333       12.2041302872
  C         9.9271891298        5.4409358741        6.9689935189
  H        10.2561526560        1.8463123746        7.0863817759
  C        10.4349261914        3.4645084412        5.9608462846
  H        11.4442741574        3.8609444302       10.7577933612
  H        12.2458548614        3.3367734397        9.3175305775
  C        12.8555485571        2.3572556998       11.1592269836
  C         7.7824319285        6.5243411413       12.7844358765
  C        10.3725057950        4.7946951124        5.8557424393
  H         9.8400514321        6.4905403894        6.7875808602
  C        10.9117810431        3.0513012702        4.7998812922
  H        13.7057122165        3.0360968860       11.1607869197
  H        13.1298435830        1.4439677277       10.5578096300
  C        12.2834143646        1.8906656200       12.5145284071
  C         7.6541750858        7.9157539138       12.9447201193
  C         7.4435206693        5.6895937192       14.0267781641
  C        10.8189189000        5.4223758695        4.5760773817
  C        11.0349601837        4.1177555688        3.8843306028
  S        11.2003228216        1.5309598527        4.0589525992
  H        11.8245394809        0.9396880363       12.3881293637
  H        13.2276130656        1.6796368320       13.1285767683
  C        11.6005689487        2.9267067211       13.3891001500
  N         7.7822911823        8.9069895331       11.9690541292
  C         7.3944435626        8.5176016704       14.1558305396
  C         7.0940471023        6.3481240069       15.1693666492
  H         7.5701198354        4.6074823971       14.1120578407
  C        12.1738511038        6.1738745293        4.8240311931
  C         9.7315399892        6.3441392125        3.8167007410
  C        11.2977870062        3.6384746822        2.5653273396
  C        11.3732047764        2.2881018167        2.5295944447
  H        10.6607389583        3.2424998450       13.0241035219
  H        12.2889544379        3.7921772575       13.3440959051
  C        11.3538451789        2.3936655165       14.8728560290
  S         7.5862234243       10.3856928604       12.6069045647
  N         7.4880374448        9.9455655455       14.1673991521
  C         7.0400392281        7.7985979560       15.3247119099
  H         6.7405903679        5.6943362292       15.9464822048
  H        11.8970145547        7.0808744157        5.3476868097
  H        12.5919929080        6.5032675795        3.8419451438
  C        13.3085857978        5.4606244580        5.6018015532
  H         9.4733063253        7.2153995877        4.4479468434
  H        10.3566201889        6.7785633179        3.0490398889
  C         8.5094076104        5.6607412947        3.3128769499
  H        11.5472050584        4.2944622376        1.7749231164
  C        11.7266014414        1.5780717993        1.2806275235
  H        10.5521342016        2.9281940217       15.2784333049
  H        11.1883551995        1.3180277771       14.8879145114
  C        12.6332555145        2.5625107591       15.6502002368
  C         6.8922994402        8.5253158050       16.5614036790
  H        12.9558329459        5.2732639215        6.5957587139
  H        13.5179836501        4.3983056521        5.2121268623
  C        14.5994332850        6.2310383134        5.6454135954
  H         8.0704530544        5.1083382543        4.1638847843
  H         8.7887365642        4.8571451481        2.5715565330
  C         7.3893144439        6.5524331279        2.7554640133
  C        12.0371543316        0.2030005901        1.2159324619
  C        11.8724024660        2.3118581205        0.0224676741
  H        12.8789174259        3.6178745276       15.6029569707
  H        13.5043435678        1.9142223453       15.3881575347
  C        12.4141095296        2.1214582491       17.1230839721
  H         7.2953431966        9.5212672955       16.4742198907
  C         6.6066966968        8.1631303879       17.8216883794
  H        14.2708389115        7.1939939386        6.0054007940
  H        15.1118158816        6.3289605693        4.6780934696
  C        15.5900520437        5.7886455084        6.7168847257
  H         7.1319676657        7.2864081796        3.5261725733
  H         7.7879310540        7.1490424268        1.9935245671
  C         6.1916833392        5.8287252148        2.2070560637
  N        11.7107338128       -0.6938961516        2.2690696328
  C        12.3161578307       -0.4613480171        0.0691532386
  C        12.2752258478        1.6770277509       -1.1608902631
  H        11.4464345462        3.3100979912       -0.1110670736
  H        12.2737360970        2.9546511101       17.7954014464
  H        13.1536101984        1.5629227196       17.5459768308
  H        11.4987142513        1.6297961709       17.2026696695
  S         6.3020609666        6.6135911755       18.4324377110
  C         6.3935605144        9.2524416106       18.8067316261
  H        15.9628924487        6.6795754476        7.2987087752
  H        15.2138571926        5.0160868176        7.4265213077
  C        16.7733235857        5.1814383489        5.9074112223
  H         6.2134760401        4.8128427149        2.5253016115
  H         6.4171189339        5.7547963439        1.1440106172
  C         4.7771855071        6.4287854820        2.3400089029
  S        11.9978544891       -2.1988195759        1.7747704441
  N        12.3099073245       -1.8460318724        0.2250064749
  C        12.4472519704        0.1933102914       -1.1870663105
  H        12.2400463677        2.2578074752       -2.0549019868
  C         6.0160296927        7.3941698909       19.9843379963
  N         6.1283621259        8.7707744020       20.0091497849
  O         6.3001924228       10.4491295932       18.5050636732
  H        16.3567168158        4.3773467080        5.3056887991
  H        17.2976685815        5.8403440464        5.2691273705
  C        17.6439200610        4.3914626179        6.7868397681
  H         4.0605807703        6.2163438958        1.5735084312
  H         4.3971684866        6.0023622690        3.1962916281
  C         4.5722903117        7.9355163243        2.4263327412
  C        12.6505809932       -0.5326276560       -2.4131200407
  S         5.4625316838        6.6782603215       21.4760203095
  C         6.0778694607        9.5837912246       21.1977067108
  H        17.0405047279        3.8483281380        7.5444229881
  H        18.1293498276        3.6618682435        6.0957514085
  C        18.7219985666        5.3165490773        7.4896792589
  H         5.2597540019        8.3026771681        3.2305699956
  H         3.5636083216        8.2317910662        2.8203217810
  C         4.9430251222        8.6732834537        1.1147631099
  H        12.9595217984       -1.5395530257       -2.1902223580
  C        13.0966229552       -0.0625403029       -3.6100099502
  H         5.3440770248        9.1589221537       21.8113947121
  H         5.6211970137       10.5699295197       21.0862392772
  C         7.4503329497        9.5467659087       21.8958271153
  H        19.1041249043        4.6963207115        8.2859672655
  H        18.0718364017        6.0281825326        7.9444405459
  C        19.7775863586        5.8572774733        6.4645901500
  H         5.8786120115        9.3151716222        1.2070491980
  H         5.0064178123        7.8145526284        0.4450497862
  C         3.8295726249        9.6447208512        0.7862104849
  S        13.3560306949        1.5483387175       -4.1307490734
  C        13.2736461844       -1.0203187062       -4.7379349359
  H         7.3585116159        8.9475767429       22.8005318631
  H         7.8572845276       10.4833972562       22.1021138994
  H         8.1826075003        9.0630130045       21.1900973583
  H        20.6833896843        6.1846674250        7.0774991694
  H        20.0820429968        5.0138670365        5.7406147307
  H        19.3633286006        6.6556505344        5.8262832542
  H         3.4859488764        9.9864994121        1.8120963974
  H         4.1585898649       10.5574057182        0.3479160243
  H         2.9601367785        9.2270270834        0.2427417513
  C        13.9038166164        0.8752820323       -5.6327898098
  N        13.8081903788       -0.4351704873       -5.7998064203
  O        13.1703630881       -2.2710453514       -4.5460028218
  S        14.6633384329        1.6998937804       -7.0058291223
  C        14.2044336575       -1.2294843238       -6.9842573909
  H        14.3467826640       -2.2944743429       -6.7151083982
  H        15.2073176670       -0.8530236592       -7.2992336029
  C        13.0004743313       -1.2485563563       -8.0236532928
  H        13.2311940182       -0.6924258547       -8.9263621225
  H        12.0449915369       -0.9323159709       -7.6217514845
  H        12.7892423679       -2.2781618438       -8.3015287380
