352
 i =    62300, time =    31150.000, E =        98.0091702559
  H        11.7759121822        4.9150073760       32.3520622481
  C        10.8006519090        5.3433272466       32.4437829244
  H        10.1038902766        4.4744515003       32.5712694513
  C        10.5325769086        6.2289207225       31.2094159329
  C        10.7839167933        6.0421776647       33.8288452264
  C        10.8346163780        5.4953200283       29.8364895129
  H         9.5036528119        6.5975430561       31.2060930319
  H        11.2544697170        7.0400609412       31.2613772610
  H        10.6315052398        5.2131773861       34.5459716119
  H        11.6819544512        6.6110431318       34.0079794392
  H         9.8829577772        6.6008535580       33.9631302602
  C        10.5550002628        6.3553243578       28.5286642592
  H        10.2147538733        4.5341507843       29.6813671157
  H        11.8479848108        5.1354641374       29.8303319264
  C        10.7529846571        5.4679343982       27.2706174510
  H         9.4899174276        6.5935691156       28.7771389082
  H        11.2065304544        7.1713893495       28.5342279455
  C         9.3662363491        4.8634565701       26.7523084590
  H        11.6031942690        4.8517396786       27.4403467547
  H        11.1896076770        6.0662749385       26.4836198778
  C         8.4758258643        5.9084911957       26.0464233696
  H         9.4267932082        3.9939171918       26.1121582762
  H         8.8249724216        4.4618778889       27.6211484991
  C         7.2174225690        5.3046745694       25.3374392018
  H         8.1906460928        6.6848409248       26.7400343262
  H         9.0745069639        6.4746213561       25.3654412095
  C         6.7456339910        4.0150679990       26.0510829031
  C         7.6138981481        4.6260226250       24.0973072164
  C         6.0218503358        6.3333154331       25.2046139458
  C         7.0537369727        2.9154736423       25.3061937036
  C         6.0979690704        3.6547498222       27.2631234031
  C         7.5289222466        3.2990538895       24.0417028198
  C         8.1954415924        5.2480792954       23.0162435796
  H         6.1926000649        7.1800984101       24.5547485652
  H         5.7777391584        6.7510223271       26.1742744888
  C         4.7442550977        5.7640858425       24.6567496101
  S         6.6343293771        1.4003280788       26.0554484818
  C         5.9052477070        2.2728669124       27.3883555456
  H         5.9106016547        4.4368429202       28.0188129206
  C         7.9612872683        2.7046718068       22.9023112483
  H         8.2611527983        6.2747992076       23.1465599004
  C         8.5707452093        4.6534175451       21.8625391882
  H         4.9003266223        5.4555840846       23.5998274370
  H         4.5129338988        4.8762896416       25.2583867660
  C         3.5757500576        6.7198942164       24.5855728109
  C         5.5467461269        1.6616375490       28.7009294398
  C         8.4227291612        3.3263492838       21.7381506267
  H         7.9058792674        1.6967201186       22.7699511044
  C         9.0505472581        5.1146447075       20.6070381659
  H         2.9307573693        6.6877109565       23.6593856858
  H         3.9597290172        7.7596480295       24.5086225094
  C         2.6273443292        6.6927391836       25.7820004475
  C         5.7729218103        0.3043050128       28.9911677299
  C         5.0346501019        2.5782880040       29.7537703439
  C         8.8651108462        2.6366342326       20.5461712949
  C         9.1742953819        3.9919406544       19.8364270157
  S         9.3641036450        6.6148898471       19.7985843860
  H         1.9260547121        7.5002634705       25.5017976305
  H         3.3566233702        6.9866666737       26.4744866919
  C         1.9978640509        5.3394304404       26.0884942867
  N         6.1730439957       -0.7057298373       28.1005164825
  C         5.4700527452       -0.1790091237       30.2035482448
  C         4.7411061443        2.0548773266       30.9836242142
  H         4.7785407407        3.6560602133       29.4923414093
  C         7.7957883722        1.8733760491       19.7654281258
  C        10.1087576339        1.6887404675       20.6482058965
  C         9.4676740656        4.3522796611       18.5140515547
  C         9.6217867448        5.7181651043       18.3743493378
  H         1.3180279966        4.9254191986       25.3719515385
  H         2.7603589699        4.5886750533       26.1501402961
  C         1.3210733748        5.3931673851       27.4765722842
  S         6.1389160160       -2.1516060996       28.8367148442
  N         5.5977777741       -1.5512139723       30.2671944499
  C         5.0061764915        0.6225278761       31.3020768733
  H         4.2459865967        2.6783636143       31.7179678247
  H         7.5164050844        1.0070606860       20.4050529974
  H         8.2533814561        1.5585798892       18.8550938637
  C         6.4827580444        2.7077460463       19.4709954031
  H        10.4048223894        1.2952264195       19.6619878487
  H         9.8354789693        0.9012769971       21.3195108659
  C        11.3500880284        2.4402155240       21.2792813666
  H         9.4805886250        3.5983832508       17.8247334528
  C         9.8625441643        6.5084578495       17.0497555478
  H         0.5692806835        4.6202903038       27.6174866548
  H         0.6001115340        6.2576830013       27.4255361309
  C         2.3369914113        5.3581993960       28.6557074677
  C         4.7800156943       -0.0213738099       32.5517713450
  H         6.6575983536        3.4999157928       18.7308222476
  H         5.9777170509        3.1050928255       20.3776466020
  C         5.4616416593        1.7797384992       18.8405770850
  H        11.2353864771        2.8522505829       22.3402941121
  H        11.6446792921        3.2461397171       20.6516101988
  C        12.5808658389        1.4885807321       21.3009893242
  C        10.1132366679        7.8918992893       16.8654944344
  C        10.0004860466        5.7947266612       15.7906959002
  H         2.6166484531        4.2918404546       28.7487022784
  H         3.2854378699        5.8509960023       28.4359658526
  C         1.7429274603        5.9034143325       29.9012150136
  H         4.8266209658       -1.1343320532       32.4644170987
  C         4.4400891355        0.3324813878       33.8145608099
  H         5.5546699873        0.8694501476       19.2796007172
  H         5.8026862012        1.5496164741       17.8111189070
  C         3.9373488162        2.2565310643       19.0285223287
  H        12.4064256276        0.7700197045       22.1045457866
  H        12.5924180714        0.9504834366       20.3285229444
  C        13.9318696418        2.1518524691       21.4427359444
  N         9.8653225094        8.8162035800       17.8924826455
  C        10.4004875002        8.4833603107       15.7062256822
  C        10.5368379391        6.3568266509       14.6386098241
  H         9.8367126382        4.7539258694       15.9946432510
  H         1.1868520984        5.1243999832       30.3568681660
  H         2.4826535555        6.1688962989       30.6695964912
  H         1.1691492155        6.8195036937       29.6083296749
  S         4.2411804431        2.0089842120       34.3704035822
  C         4.3905523446       -0.6835184878       34.9098306640
  H         3.7759444545        2.6049631601       19.9944471524
  H         3.6762094883        3.0469221707       18.3431985694
  C         2.9539119567        1.1450779115       18.8761835258
  H        14.0091200308        2.9492007251       20.7462542725
  H        14.6205374837        1.4578683007       21.0407294787
  C        14.2933345919        2.4586536005       22.8688635223
  S         9.9023810628       10.3370129809       17.3133634136
  N        10.3383483116        9.8794030181       15.8435206218
  C        10.6650260813        7.8379617239       14.5359808113
  H        10.6615931566        5.7491618129       13.7551572498
  C         4.1729094737        1.3380954105       35.9061910933
  N         4.1687013295       -0.0275868013       36.0679053948
  O         4.5151472269       -1.9054924718       34.6964142258
  H         1.9661508336        1.5270657896       19.2643459590
  H         3.1313542895        0.3098388251       19.6544724338
  C         2.9208961868        0.5011031039       17.4698537484
  H        13.4737808221        2.9842552521       23.3543569841
  H        14.3773039776        1.5420122324       23.4408705506
  C        15.5445504632        3.4100263636       23.1332713792
  C        10.8322538697        8.5749416164       13.3015054438
  S         3.9963727106        2.4100556516       37.2660081857
  C         4.1472655307       -0.7895903968       37.3146478824
  H         2.3190335589        1.1552089798       16.8217403979
  H         3.8429703899        0.5474011335       17.0217890350
  C         2.5450450397       -0.9400507019       17.2907479813
  H        15.6032637125        3.5452995078       24.2550835957
  H        15.4317388951        4.3070630787       22.6146330722
  C        16.8330109436        2.7005251761       22.7120147942
  H        10.5634898687        9.6025307398       13.2696111755
  C        11.4085722954        8.1953676953       12.1279881018
  H         3.5808587891       -0.3163412155       38.1421543004
  H         3.5846023983       -1.7190595361       37.1434758347
  C         5.5503740861       -0.9967051220       37.8703899457
  H         3.3010998341       -1.5901121073       17.7995851797
  H         2.5467011491       -1.2707372630       16.2267345701
  C         1.2678049871       -1.3077659079       18.0000034948
  H        16.8781885864        2.5240863869       21.6702238574
  H        17.5984813394        3.4504352374       22.7819143510
  C        17.3919271461        1.6224318539       23.6518822998
  S        12.0924216503        6.6831769051       11.6642772961
  C        11.4121411827        9.1647751167       11.0047536207
  H         5.5235248599       -1.4444910385       38.8654101776
  H         6.1814120315       -1.6710657724       37.3120583322
  H         6.0595670243       -0.0690653918       37.9308174243
  H         0.9174510850       -2.3037824638       17.8757799299
  H         0.4809045822       -0.6297395728       17.7079057976
  H         1.5186213272       -1.0575950962       19.0377639996
  H        16.8459694902        1.6411493474       24.6471277672
  H        18.4223922557        1.6624159131       23.9395653304
  H        17.2785514143        0.6814218316       23.1303927063
  C        12.2426807169        7.2926684582       10.0121575479
  N        12.0450664037        8.6223349974        9.9270392842
  O        10.9516163638       10.3390926200       11.0608928827
  S        13.1046494527        6.4742767920        8.6959190629
  C        12.3759303284        9.3889869347        8.7586039495
  H        12.4948528855       10.4239702890        9.1273351041
  H        13.3888383145        9.0378221095        8.3873385171
  C        11.1912788412        9.3857012626        7.7803985093
  H        11.3744414410       10.0645082476        6.9226578479
  H        10.9610110538        8.4535503396        7.2831849528
  H        10.3522368896        9.8110885679        8.2731661511
  H         4.2950287249        1.4479702085       12.6482557460
  C         3.8632247351        2.4520246828       12.7145050855
  H         4.5951199013        3.1698173929       12.5939174443
  C         2.9558276058        2.6006225769       11.4461467852
  C         3.0371793252        2.4162060970       14.0326344143
  C         3.6136939609        2.7833206274       10.0406928384
  H         2.4237664813        3.4853669811       11.7082264620
  H         2.3054148722        1.7384022071       11.3902530431
  H         3.4998338142        1.8764050463       14.7753289793
  H         2.0779109545        1.9554063456       13.7726933643
  H         2.8029456097        3.4102567351       14.3348158354
  C         4.3859330659        1.5520784564        9.5175823119
  H         2.8730201117        2.9471792684        9.3913550697
  H         4.1464097897        3.6913098486       10.0650570022
  C         5.1122884246        1.8917406835        8.2309246360
  H         3.7033345866        0.8107994022        9.2570714698
  H         5.0846298887        1.2304626823       10.2524783727
  C         6.3926717504        2.7895909740        8.2799698016
  H         4.3737305177        2.3014983756        7.5735829884
  H         5.2198233320        0.9113867869        7.6951094187
  C         7.6624381538        2.0702058588        8.6641216460
  H         6.5054144818        3.2981746954        7.3316649707
  H         6.0988239256        3.6035686795        8.9448677147
  C         8.8679548406        2.9404697999        8.9964739710
  H         7.9073239417        1.2811463142        7.9790923520
  H         7.3739200262        1.5891656634        9.5714323484
  C         8.4743237685        4.3195774553        9.6059556363
  C         9.5163116109        3.5566858754        7.8520517231
  C         9.9371382360        2.2667647634        9.8644512512
  C         8.8994855389        5.3607201704        8.8350230340
  C         7.9080481335        4.7067223121       10.7863278377
  C         9.5295197583        4.9117269479        7.7283870100
  C         9.9528359582        2.9700887759        6.6436729736
  H         9.4940553822        1.6593945535       10.6953865872
  H        10.4771456524        1.5275352434        9.2460279417
  C        11.0527297994        3.2240535772       10.3771903685
  S         8.4153497802        6.8644327844        9.5411170905
  C         7.8262773220        6.0671185377       10.9309719316
  H         7.6207796238        3.8904289411       11.4048051932
  C         9.9755954600        5.5311736542        6.5890841887
  H         9.8939709497        1.8793020395        6.5760193460
  C        10.4128574853        3.6222976706        5.5088567331
  H        10.7016580928        4.1928179649       10.5691028361
  H        11.8440038888        3.3310798815        9.6348085855
  C        11.8332335427        2.6435431786       11.5536440533
  C         7.5269303371        6.7154207788       12.2050773818
  C        10.4681221443        4.9457462448        5.4200210506
  H         9.8784846196        6.6404904817        6.5264120053
  C        10.7561266959        3.1165260021        4.2907556725
  H        12.7553914587        3.2691934454       11.7253742843
  H        12.2109561576        1.7223075641       11.2422082376
  C        11.0606355497        2.5858013194       12.9255586134
  C         7.6145978148        8.1029387545       12.5252111830
  C         6.9646817900        5.9806835294       13.3443778581
  C        10.8251686469        5.5315883101        4.0826096275
  C        11.0483792141        4.1626007544        3.4621535009
  S        11.0226551088        1.5760906038        3.6522116558
  H        10.9083885341        3.6005492733       13.1239341260
  H        10.0598947057        2.1035003647       12.8189942653
  C        11.9956681375        1.8830356734       13.9950481191
  N         7.9959786387        8.9998172025       11.5742332753
  C         7.3924836929        8.7108634253       13.7674227363
  C         6.6847972408        6.5171566706       14.6142219687
  H         6.8274988011        4.9398382442       13.2595639697
  C        12.1876594187        6.2228230011        4.2407618858
  C         9.8140015234        6.4166250623        3.2512592117
  C        11.2389747862        3.6886113925        2.1679753138
  C        11.4821793753        2.3558572253        2.1204513135
  H        12.9585582812        1.9813364734       13.6348888947
  H        11.8317520269        0.8047276522       13.7992099265
  C        11.9748758285        2.4103696903       15.3812187630
  S         7.9159615356       10.4539071691       12.2502634857
  N         7.5851455898       10.0129559817       13.7453591446
  C         6.8933475037        8.0032895000       14.8871173044
  H         6.1581638408        5.8999321100       15.2856402101
  H        12.0101279260        7.0673998910        4.9386268880
  H        12.4077137414        6.6175811654        3.1994115570
  C        13.4054207119        5.3207176747        4.6316949131
  H         9.5723471722        7.3056000212        3.8916740694
  H        10.3268733171        6.8892676598        2.3820683947
  C         8.5882617723        5.6258415018        2.7838894866
  H        11.3147766917        4.3380752762        1.3285781608
  C        11.7651408008        1.6550460813        0.8599820397
  H        11.9613139016        3.5074544143       15.4703039266
  H        11.0554142628        2.1044943094       15.8216842603
  C        13.1913923257        1.9896572631       16.2313263636
  C         6.6325641674        8.7118618319       16.1025309439
  H        13.0274442073        4.6763771594        5.5222282050
  H        13.5505774125        4.6507714038        3.7716184526
  C        14.6870252531        5.9558501612        5.1482588773
  H         8.1937017429        5.0548294118        3.6100273651
  H         8.8920190806        4.9489271914        1.9673687897
  C         7.5864166073        6.5994599277        2.2734226686
  C        11.8546840890        0.2207987985        0.7246162971
  C        11.8220247674        2.3846681064       -0.4169378669
  H        14.1302276098        2.3977179726       15.8094557067
  H        13.2950520923        0.8871169164       16.2631816712
  C        12.9226088029        2.4688589431       17.6435721732
  H         6.8234670755        9.7788337073       16.1287267679
  C         6.4159587176        8.2183784352       17.3346528235
  H        14.3820395397        6.7379638583        5.8415924857
  H        15.1887590013        6.4820943051        4.3254942519
  C        15.6775312408        5.1556711552        5.9946270785
  H         7.3013481336        7.4225631991        2.9890434615
  H         7.9618629607        7.1716406325        1.3971562889
  C         6.2792079064        5.9264280795        2.0797532102
  N        11.7250726845       -0.7170265314        1.7402160255
  C        12.0203408474       -0.4143206363       -0.4647601751
  C        12.1870878743        1.8100567935       -1.5905865263
  H        11.5201496902        3.4110004979       -0.4868521869
  H        13.1205024975        3.4950697265       17.8028829986
  H        13.5986091356        1.9665357948       18.3529653760
  H        11.9489570420        2.1093222647       18.0256967224
  S         6.4315618543        6.5375858334       17.8052402843
  C         6.0091958928        9.1720477776       18.4107254284
  H        15.1497595607        4.4746774923        6.5788532705
  H        16.2934382559        4.4948985543        5.3885249203
  C        16.4998935432        6.0514997361        6.8895815009
  H         5.8522785418        5.5079843422        2.9705347648
  H         6.4315715265        5.0728298935        1.5033698333
  C         5.2171048761        6.8089752505        1.4412067491
  S        12.0481179047       -2.1512913466        1.1153221941
  N        11.9696982225       -1.7723728004       -0.4101645391
  C        12.2897667986        0.3109491666       -1.6349739008
  H        12.3434896155        2.4344541952       -2.4732680447
  C         6.0317356289        7.1254613656       19.3627511297
  N         5.7664999056        8.4581069186       19.4938830188
  O         6.0017445273       10.3915319596       18.2742805778
  H        16.7339766488        6.9782895622        6.3371994633
  H        15.9181132653        6.2647487447        7.7473151129
  C        17.8077730998        5.3970713175        7.3130029160
  H         5.5965016702        7.3438404668        0.5586641244
  H         4.4508768238        6.1564594241        1.0467377219
  C         4.6184891546        7.8244501848        2.4681057879
  C        12.4598259729       -0.3825031654       -2.8397299213
  S         5.6202243922        6.0476073831       20.7151638783
  C         5.6216475374        9.1021194515       20.8101646486
  H        17.7168406465        4.7550158567        8.2258685297
  H        18.1271425347        4.6785279058        6.6184550111
  C        19.0277507945        6.2845564414        7.5027958505
  H         5.4557832008        8.4533034191        2.7749403487
  H         4.2433358771        7.2360059580        3.3235710299
  C         3.5580371076        8.7921932495        1.9961400862
  H        12.1872981117       -1.4412867646       -2.7453717808
  C        13.0013012360       -0.1263040877       -4.0688020768
  H         4.9485408727        8.5368578590       21.4683848094
  H         5.2299077475       10.1515935264       20.7522819369
  C         6.9915467063        9.0607328111       21.5377579546
  H        19.6505948658        5.7106277164        8.1362971434
  H        18.7225285665        7.2035122618        8.0583490122
  C        19.6996823493        6.6125063410        6.1742655582
  H         2.5188391818        8.4410103362        2.0661455387
  H         3.6404132000        9.6587727412        2.7217889852
  C         3.7360162065        9.3397829906        0.5953778657
  S        13.7268652561        1.3773594085       -4.6254938245
  C        12.9749651419       -1.2049111682       -5.0631444856
  H         7.7875950892        8.8151514653       20.7345468308
  H         7.0282609561        8.3677487933       22.3011568619
  H         7.3965263474       10.0076333460       21.9557287389
  H        20.7138561174        6.9267261185        6.3618520326
  H        19.7784355681        5.7750237049        5.4250984928
  H        19.1627089988        7.4793350812        5.7614250823
  H         3.2600012372       10.2951337466        0.5207576594
  H         4.7889573618        9.5870261958        0.4448441585
  H         3.2973530507        8.6786842814       -0.1542817811
  C        13.9293873821        0.4938489907       -6.1655630289
  N        13.5589568395       -0.8006927637       -6.2092459930
  O        12.6857602009       -2.4077228411       -4.8600551543
  S        14.2801939903        1.2147282423       -7.6919339795
  C        13.4646613408       -1.5926712624       -7.4168987554
  H        13.5471553703       -2.5870231951       -7.2406812848
  H        14.2329094683       -1.4171345540       -8.1391636298
  C        12.1558518937       -1.3667062232       -8.1125332155
  H        11.4011214665       -2.1602510352       -7.9241960008
  H        12.2991709825       -1.4682183023       -9.2005007279
  H        11.7323965997       -0.3445930028       -8.0028278371
