352
 i =   121300, time =    60650.000, E =        99.3515725421
  H         9.7784468053        6.6384129283       32.3843620422
  C        10.8678255328        6.4561294340       32.4082878172
  H        11.3505447705        7.1876030763       33.0492899007
  C        11.4218799402        6.5233535118       30.9951827476
  C        10.9915755013        5.1332289525       33.1335553688
  C        10.5707747471        5.8631156702       29.9440769905
  H        11.6506662560        7.5647511584       30.7623341230
  H        12.4214908963        6.0535622831       31.1151152613
  H        10.7179053147        4.2621309905       32.5585128540
  H        11.8856872749        5.0493493484       33.6765650432
  H        10.2765238265        5.1013806756       33.9870833653
  C        11.3452784587        5.3070849851       28.7292818567
  H         9.8450141131        6.6523050288       29.5982404389
  H         9.9027999292        5.0743274434       30.3874341069
  C        10.7520794478        5.5003059971       27.3362177734
  H        12.3869685335        5.5858827101       28.7886545116
  H        11.3718978278        4.1927897136       28.8072387258
  C         9.4620339815        4.7830215014       26.9694518394
  H        11.4426980890        5.2739096588       26.5738880067
  H        10.6038087925        6.5812170658       27.2224650945
  C         8.2683173918        5.7631356945       26.5953496859
  H         9.8027810956        4.2549727634       26.0535902385
  H         9.2575936767        4.0258551607       27.6702063343
  C         7.1008505045        5.0827516351       25.8659177147
  H         7.8502705577        6.1824977482       27.5112487949
  H         8.6802813011        6.5965520137       26.0077207494
  C         6.7809118886        3.7921900155       26.5826698348
  C         7.5084846534        4.3562534077       24.6503968010
  C         5.8714819270        5.9390028146       25.5855395340
  C         6.9458177112        2.6693001988       25.7868810056
  C         6.1715728102        3.4086472745       27.8309080661
  C         7.4510209724        3.0253862762       24.5445689636
  C         7.9744626919        4.9744643458       23.4780500644
  H         6.0940687696        6.7314781939       24.8814330689
  H         5.6176706813        6.4111255150       26.5538527705
  C         4.5449990714        5.2700141809       25.0634684771
  S         6.3495666898        1.2176818531       26.5201500231
  C         5.9287931540        2.0369404222       27.9625375882
  H         5.9792647925        4.2299891178       28.4850003467
  C         7.8579413528        2.4281592475       23.3252099714
  H         8.0034510515        6.0586887666       23.6322165676
  C         8.3219436896        4.3662520221       22.2896590237
  H         4.8316292795        5.1008521527       24.0823883994
  H         4.4078811302        4.2905750116       25.4418651029
  C         3.3482067870        6.2668627915       25.1038184592
  C         5.5269183345        1.3901160228       29.2628670233
  C         8.2689026964        3.0487804736       22.1791977004
  H         7.8304152810        1.3794206498       23.3225527134
  C         8.7216854159        4.8198404753       21.0543660856
  H         2.4580436725        5.8166445997       24.5688157728
  H         3.6509987692        7.2108024827       24.5848383546
  C         2.8462869165        6.3973310503       26.4650696137
  C         5.4436696607       -0.0589217128       29.4832112747
  C         5.0000553482        2.1186178605       30.4467677929
  C         8.7989446739        2.4013869731       20.9725201582
  C         8.9850492046        3.7625703626       20.2225117623
  S         9.0381232820        6.3444663580       20.2769260831
  H         1.9433298207        6.9800136261       26.3192769465
  H         3.4546726708        6.9993328559       27.1386884202
  C         2.4876583755        5.1469797156       27.1896547776
  N         5.8154604761       -0.9931372631       28.4837208989
  C         5.1575916096       -0.6816475987       30.6983726730
  C         4.6325867740        1.5238708315       31.6793314451
  H         4.8541760469        3.2161115799       30.3879278629
  C         7.6898420444        1.5310614632       20.2795885512
  C        10.1580353964        1.6024642846       21.0890177433
  C         9.4819069318        4.1697714140       18.9798161541
  C         9.5211349108        5.5135155713       18.8740912288
  H         2.1247162176        4.4323220274       26.5883818001
  H         3.3621622127        4.7523388839       27.6851431437
  C         1.2663641866        5.2670786532       28.0885256953
  S         5.8642749827       -2.4709043596       29.2459355050
  N         5.3080936419       -2.0507120748       30.6671258146
  C         4.7509018278        0.0618864815       31.8258309115
  H         4.2610105227        2.1733428096       32.5540984227
  H         7.0721962979        0.9539655222       21.0047063863
  H         8.1340090480        0.8057310922       19.6481132967
  C         6.7113931115        2.3404370955       19.4195588103
  H        10.4748136029        0.9974598241       20.1677923801
  H        10.0202632651        1.0146539109       21.9607308946
  C        11.3912931985        2.4840658328       21.4930525579
  H         9.7578960283        3.3527184423       18.2701282655
  C         9.7831405744        6.1983616964       17.5898447811
  H         0.8021023440        4.2762279216       28.2874390272
  H         0.5636710326        5.9328997706       27.5636719016
  C         1.5898831439        6.0011332097       29.3658883874
  C         4.5882761013       -0.7269334721       33.0389082076
  H         7.1606122572        2.6825826989       18.5352556531
  H         6.3815760933        3.2259182351       19.8825763899
  C         5.5381692841        1.4145744784       19.1255754931
  H        11.1555021939        3.1043306818       22.3984039052
  H        11.6126277330        3.1695033618       20.6566101367
  C        12.6675127596        1.5561043695       21.6653439530
  C         9.8398702043        7.5560378769       17.3128168355
  C        10.0944722185        5.3430974929       16.3397815424
  H         2.5099071833        6.6631974726       29.2325397179
  H         0.7672353037        6.5671375117       29.6298767483
  C         1.9482941925        5.0749927179       30.5288144843
  H         4.6449986537       -1.7917814759       32.9048223352
  C         4.3663127714       -0.3079830782       34.3499369698
  H         4.8382932793        1.3039582647       19.9831231335
  H         5.9222320001        0.4010011933       18.9077711892
  C         4.6823577378        1.9512328144       17.8958211743
  H        12.5013414340        0.8301785309       22.3972296984
  H        13.0108952273        0.9889837957       20.7406617455
  C        13.7540961950        2.4970524158       22.0138118527
  N         9.5236654823        8.5595977416       18.2189131706
  C        10.1237956408        8.1076550799       16.0682357905
  C        10.2603357772        5.9080641243       15.0561483691
  H        10.1086976784        4.2171270985       16.4076709069
  H         2.5807660236        4.2315367011       30.1642341368
  H         2.3998902762        5.6810709908       31.3177143325
  H         1.0830251738        4.5296455334       30.9298883526
  S         3.9980152907        1.2453583100       34.9584388614
  C         4.2575898056       -1.3865088017       35.3682579726
  H         4.3870815677        2.9977353877       18.2075530966
  H         5.2952648088        2.0046116247       16.9624069090
  C         3.2294391797        1.3935721308       17.6001067198
  H        13.5929918304        2.9713352323       22.9385442031
  H        13.7351076569        3.3035716048       21.2290839835
  C        15.0673467110        1.8021803597       21.8781977651
  S         9.5387039719       10.0134304685       17.5742408892
  N         9.9720985968        9.5004341919       16.0869974637
  C        10.3185952554        7.3855166437       14.8619581899
  H        10.3233739289        5.2505625266       14.2183669242
  C         3.9049161605        0.4968588977       36.5835424921
  N         3.9572797169       -0.8585276444       36.5215607317
  O         4.3099996961       -2.6031853873       35.1420894395
  H         3.0059586518        1.8779545193       16.6922003555
  H         2.6039400956        1.8850394672       18.3089152966
  C         3.1712423516       -0.1332235402       17.5233917367
  H        15.1698790826        0.9232957477       22.5339071078
  H        15.1333700413        1.3642494053       20.9048733786
  C        16.2038293246        2.7878037820       22.0802704008
  C        10.6973202949        8.1383468595       13.7041380199
  S         3.6853313921        1.3315719725       38.1144582777
  C         3.9537606621       -1.6899580680       37.7574950229
  H         3.6113116692       -0.5001209995       16.6200815334
  H         3.7935533420       -0.5416824870       18.3226353877
  C         1.7470221264       -0.6201184735       17.7857257222
  H        15.7748892640        3.5441148696       22.7817029102
  H        16.5379774003        3.3136720415       21.1261192068
  C        17.3837143001        2.2342583884       22.9354739678
  H        10.5086067105        9.2093864295       13.6795101821
  C        11.1549527826        7.8370824334       12.4887041716
  H         3.3970923503       -1.2191829332       38.5486179235
  H         3.5435833642       -2.7102210234       37.5647137651
  C         5.3950549770       -1.8638058008       38.1255666589
  H         1.2990880626       -0.5844802318       16.8709818606
  H         1.3188907126        0.0812215596       18.4755637507
  C         1.6419651348       -1.9644397869       18.4943044427
  H        17.7293490527        1.3004739418       22.5275466855
  H        18.1883323173        2.9326253525       23.0481140161
  C        16.9723151545        2.1478374677       24.3607645270
  S        11.5656858785        6.2232145729       11.9713101058
  C        11.2990276195        8.8959795260       11.4752553097
  H         6.0894179624       -1.5093962441       37.3904273281
  H         5.6291816435       -1.2723827160       39.0522079556
  H         5.6619064993       -2.8674399992       38.4851553395
  H         0.6682308724       -2.0670799311       18.9178542724
  H         2.2822478115       -1.9809499671       19.3993294144
  H         1.6972249015       -2.6667209384       17.7724837196
  H        16.3133195289        1.3143337290       24.4999132189
  H        16.4367860161        3.0650918669       24.7970091728
  H        17.8092703158        1.9675383626       24.9488970374
  C        11.8786581254        6.9612704777       10.4300637762
  N        11.6927911870        8.3084151393       10.3258166164
  O        11.0359496129       10.0854425254       11.5414293417
  S        12.4475499511        6.0834628729        9.0021616235
  C        11.7856703125        9.0704976985        9.0775097123
  H        12.0168663735       10.1194835735        9.3635813266
  H        12.6919815868        8.7727419774        8.5468995038
  C        10.4114144930        8.8713262138        8.3827226228
  H        10.0958307914        7.8579551038        8.4490599338
  H         9.6787161937        9.6068831124        8.6682402951
  H        10.6561029360        8.9980801106        7.3230708870
  H         4.6723096558        3.2724788599       12.8715370546
  C         3.7033314224        2.9854943505       13.1014837135
  H         3.3283290294        3.6121522946       13.9979927379
  C         2.7597491234        3.0891549467       11.9070289798
  C         3.5378397186        1.5731750365       13.6019869337
  C         3.6375133115        3.2715121509       10.5865371095
  H         2.0483008202        3.9614253927       11.9883862044
  H         2.1543750906        2.2178275374       11.7437792122
  H         3.3920661883        0.8187503056       12.8907973195
  H         2.7206436456        1.5046812313       14.3341191862
  H         4.5395820941        1.2997320401       14.0568608892
  C         4.6932324853        2.1773271618       10.3077221807
  H         2.9504538037        3.4227914571        9.7415988005
  H         4.1537256123        4.2183258844       10.6273588470
  C         5.0205651729        1.9913279769        8.8220320998
  H         4.2500919429        1.2524790766       10.6473451620
  H         5.5857788891        2.3447922001       10.9227086916
  C         6.3560674235        2.6241204978        8.5797257045
  H         4.2316143829        2.5547208942        8.3058423827
  H         4.8818453131        0.9931628734        8.4476371606
  C         7.5291261894        1.7291362946        9.0109134152
  H         6.4271273464        2.9424200006        7.5450319862
  H         6.2732564368        3.6129097056        9.0477721207
  C         8.8183973290        2.6239257997        9.3075268394
  H         7.8051520164        1.0363577378        8.2149183761
  H         7.3453894254        1.1304466538        9.8876958709
  C         8.3992919652        3.9518894783        9.9882308506
  C         9.2173478677        3.4678148395        8.1137866476
  C        10.0344886235        1.9190936917        9.9905433880
  C         8.7032374527        5.1032734246        9.2970911318
  C         7.8649916853        4.2868451796       11.2422868383
  C         9.1480693393        4.8026061713        8.0376600122
  C         9.7377230435        2.8875872923        6.9159870250
  H         9.5993684494        1.4605960066       10.8916365045
  H        10.2817279503        0.9845750643        9.4913822876
  C        11.2272729818        2.8033960540       10.3037556276
  S         8.4555492633        6.6066705500       10.1005314243
  C         7.7635865095        5.6830025990       11.4634076750
  H         7.7044890912        3.4660900116       11.9062925336
  C         9.4692121669        5.5127809361        6.8670138688
  H         9.9029141352        1.8270560540        7.0085477207
  C        10.1017789510        3.5241354468        5.7935193594
  H        11.0539601904        3.8416745608       10.6899386582
  H        11.7486370579        2.9728719335        9.3864387581
  C        12.1885676795        2.1393224391       11.3081865392
  C         7.3720396896        6.4285657226       12.6992825954
  C         9.9269083625        4.8671399058        5.6947638473
  H         9.2561213786        6.5546607690        6.7086083482
  C        10.5226225988        3.1522653037        4.5551999091
  H        13.1731137490        2.6554189833       11.2251205341
  H        12.4357217139        1.1157318114       11.0794680158
  C        11.6290677906        2.1213764062       12.6853624224
  C         7.5065070154        7.7971842872       12.9859782603
  C         6.9014133676        5.5786570275       13.8620558951
  C        10.2565788118        5.5521688900        4.3787882353
  C        10.5088980916        4.2106789286        3.6778915313
  S        10.8573540254        1.6029762189        3.8181469525
  H        10.9665274418        2.9333332586       12.8628938804
  H        10.9484452228        1.1784356505       12.8098531551
  C        12.7766234190        2.0710090326       13.6818292820
  N         8.0152745147        8.7999462385       12.1316846437
  C         7.1711184485        8.3317897593       14.2322455969
  C         6.7072176822        6.0834877057       15.0863649145
  H         6.6069226149        4.5429344418       13.6729185986
  C        11.5318809776        6.4019616345        4.3735030580
  C         9.1526297468        6.3674695110        3.6301084186
  C        10.7537928546        3.8138672697        2.3649462184
  C        10.9621296790        2.4669166399        2.2504784663
  H        13.5752038781        2.7918483473       13.4816821100
  H        13.2757498004        1.1636096078       13.5070937261
  C        12.3691526529        2.3701505254       15.0816573438
  S         7.9303617171       10.2036047114       12.9030797322
  N         7.3051135212        9.6850629148       14.3016153872
  C         6.9134245065        7.5583003798       15.3614483431
  H         6.3617261998        5.4321534038       15.8011948019
  H        11.3388059182        7.2270303825        4.9854993961
  H        11.8457784814        6.7878087324        3.4271418770
  C        12.6731551515        5.4849972147        4.9727238676
  H         8.8503113434        7.1686846018        4.2889114288
  H         9.6412694162        6.9144778786        2.8350820952
  C         7.8106334927        5.6331916260        3.2293759775
  H        10.7473673458        4.5208894363        1.5312548971
  C        11.4819439135        1.7031862072        1.0389233139
  H        12.1073679460        3.4123186187       15.2783196207
  H        11.5809138193        1.7360344547       15.3539109036
  C        13.5095163701        1.9857188930       15.9636065374
  C         6.5955010851        8.1651777015       16.5848476612
  H        12.4631741143        5.2725501327        6.0050445235
  H        12.8744728699        4.5380240070        4.5122255555
  C        13.9755004168        6.2319297558        5.1437509681
  H         7.3107811260        5.2828441772        4.0814728081
  H         8.0289487139        4.7745064595        2.5631934380
  C         6.9206341944        6.6345484112        2.5976176152
  C        11.5186877143        0.2634553698        0.8910963329
  C        11.6221413797        2.4406810075       -0.2256121132
  H        14.4239683120        2.5937067807       15.7780056893
  H        13.6838968388        0.8748164276       15.7453950345
  C        13.1995414896        2.0187869399       17.4366957772
  H         6.6699968755        9.2506428273       16.6357637470
  C         6.2446583470        7.6936624048       17.8044651518
  H        13.9210292731        7.1036139581        5.7568750793
  H        14.2622537333        6.5241828482        4.1257197534
  C        15.0732818890        5.3321720379        5.6347176441
  H         7.0271850444        7.6445442951        2.9102669375
  H         7.1713353215        6.5102824308        1.5707538263
  C         5.4533568517        6.2754134133        2.6404906751
  N        11.1403963433       -0.6934393189        1.8654590548
  C        11.7796721561       -0.3511270423       -0.3081724449
  C        11.9225437590        1.8421325401       -1.4694378582
  H        11.5118048044        3.5169751908       -0.1808947150
  H        14.0916723579        1.8327352409       18.1450583720
  H        12.5315631236        1.1658826793       17.6359534617
  H        12.8261882884        2.9579176960       17.8311377193
  S         5.9999581533        6.0483167879       18.3037606923
  C         6.0823039391        8.6939570104       18.8860045125
  H        14.6423976495        4.5777779031        6.2871515842
  H        15.4044370177        4.7852779910        4.7321000372
  C        16.1758211655        6.1136577065        6.4171907955
  H         5.0696866689        6.4607365575        3.6047521137
  H         5.4967648558        5.1968406651        2.6459068208
  C         4.5763697222        6.9262365863        1.5686267907
  S        11.3330801878       -2.1857888678        1.1529166852
  N        11.9285024738       -1.7322043410       -0.2349297447
  C        11.9933699983        0.3685511761       -1.5147752368
  H        11.9717653782        2.3190613373       -2.3620055497
  C         5.7140248388        6.6663366801       19.9522269504
  N         5.7377687916        8.0483785891       20.0534083980
  O         6.3048299273        9.8955085300       18.7455391938
  H        16.7033623640        6.6033183023        5.6062953897
  H        15.7837810282        6.9181842583        7.1164233195
  C        17.0601142241        5.1433344247        7.1738586563
  H         5.0379547239        7.0830634857        0.6005109053
  H         3.7912753278        6.1783415395        1.3520655499
  C         3.8760828706        8.1698784922        2.2326181581
  C        12.2250508753       -0.4871987056       -2.6843685472
  S         5.2860473434        5.7604966278       21.4004520123
  C         5.6794557887        8.7544952027       21.3654272694
  H        16.5696984273        4.9453300242        8.1249461258
  H        17.0755594908        4.1285735813        6.7388820956
  C        18.4594781955        5.6626114984        7.3289108395
  H         3.7284167042        7.9505414532        3.2937119674
  H         2.8975469607        8.3049884147        1.8780657381
  C         4.6841868935        9.4489874739        2.0199752956
  H        11.8241793503       -1.4752366614       -2.5891884455
  C        12.8717467343       -0.2640423298       -3.8625994244
  H         5.0772950217        8.2218460071       22.1291951567
  H         5.1579946858        9.6695555141       21.2210894471
  C         7.1383841775        9.0726596159       21.8647340396
  H        19.0742143733        4.9681245012        7.9645712947
  H        18.4698352542        6.5992908378        7.8906294731
  C        19.2958525112        5.9582173640        6.0368785159
  H         4.6953682497       10.0524962201        2.9678959555
  H         5.7234786356        9.2788563390        1.7631167706
  C         3.9304878655       10.2961635433        0.9500554170
  S        13.5085696928        1.2575902424       -4.3193016801
  C        12.9963177442       -1.4153686716       -4.8714504856
  H         7.7209571132        9.5000436783       21.0799878639
  H         7.6019649834        8.1382621044       22.0520676974
  H         7.2213543558        9.8720634414       22.6793001297
  H        19.0125000650        6.9180296724        5.7357500161
  H        20.4046778535        6.0185142639        6.1448907929
  H        19.0023933723        5.2905726281        5.1614269120
  H         2.8754275103       10.5604942822        1.2309505583
  H         4.4607066572       11.2524311933        0.7571498957
  H         3.9478005318        9.7343056802       -0.0031940198
  C        13.8237534873        0.3641427092       -5.8614761469
  N        13.6666647147       -0.9530829176       -5.9199391522
  O        12.4995399595       -2.5326307229       -4.7198067603
  S        14.5880671767        1.2113350206       -7.1770454036
  C        13.9291526202       -1.7294992938       -7.1763578017
  H        14.1505021844       -2.7747154113       -6.9088780491
  H        14.8551239932       -1.4192384461       -7.6695966449
  C        12.6496385973       -1.7263254435       -8.1792243456
  H        12.5807481230       -2.6296386918       -8.8082506856
  H        12.4546806687       -0.8636022138       -8.7866616656
  H        11.6878953173       -1.7975599114       -7.6378600271
