352
 i =   125200, time =    62600.000, E =        98.9134557112
  H         9.1256172515        5.6426859609       32.2407345184
  C         9.8723112787        6.3234990068       32.4163542188
  H         9.3562867148        7.2316079732       32.7976111167
  C        10.5404884799        6.5261041287       31.0774391609
  C        10.9136293999        5.8292004740       33.4140520424
  C        10.4713766188        5.2824003308       30.2659892891
  H        10.0092505496        7.3160434714       30.5485577261
  H        11.4924455835        6.9776641494       31.1620869619
  H        10.7196330772        4.8823782783       33.9125774426
  H        11.8528780544        5.6964439321       32.8797922844
  H        11.0312100029        6.6109652636       34.1578128742
  C        11.2199366036        5.4775385599       28.9077130030
  H         9.3900762182        5.1214111929       30.0358223495
  H        10.7933073276        4.2857461485       30.6294817719
  C        10.3575880697        6.2042700321       27.8266781229
  H        12.1164165081        6.0338301912       29.1478812654
  H        11.5736963673        4.5479791363       28.5879793868
  C         9.2746343439        5.3186280180       27.2119806158
  H        10.9216815931        6.4316315135       26.9288828860
  H         9.8706221272        7.1021768044       28.2127480161
  C         8.2719887929        6.0906604165       26.3777742977
  H         9.7996508576        4.6340913604       26.5110790894
  H         8.7285087793        4.7732796942       27.9707644229
  C         7.2533160188        5.2512680568       25.5573454980
  H         7.6840522756        6.5473997896       27.0554902081
  H         8.6670587586        6.7757483624       25.6409611640
  C         6.9307301540        3.9593933708       26.2599451428
  C         7.8031148223        4.4728001250       24.3969017214
  C         6.0972768239        6.2027547535       25.2010236499
  C         7.2866801077        2.7942457024       25.6028823065
  C         6.3330522856        3.7070504117       27.5223987749
  C         7.7339366769        3.1074243941       24.3530939150
  C         8.4110494591        5.0465767645       23.2623263430
  H         6.3639605972        6.8128993792       24.3194206542
  H         5.9260029118        6.9200851986       26.0032053623
  C         4.7825885194        5.4841883537       24.8581034855
  S         6.9512390811        1.4036478320       26.4397507681
  C         6.3247885388        2.3505971625       27.7789254746
  H         6.0127614188        4.4782334715       28.1497561037
  C         8.0917907314        2.4622286278       23.2288075231
  H         8.5178068114        6.1396891533       23.2070568146
  C         8.7512139461        4.3630312842       22.1463610752
  H         4.9971184338        4.7513688072       24.0567304231
  H         4.5398590743        4.8193482882       25.6448396570
  C         3.5139600205        6.3422377947       24.5827710738
  C         5.8484407262        1.6811522853       29.0186796067
  C         8.6020676205        3.0011301938       22.0558531952
  H         7.9370839182        1.4417905649       23.2085832998
  C         9.1142601970        4.7785984276       20.8844337653
  H         2.7682406980        5.7813235068       24.0374422618
  H         3.8481324610        7.1444037497       23.8419301531
  C         2.8012507049        6.7439498387       25.9411869823
  C         5.8175278029        0.2775069471       29.2821237761
  C         5.4030165615        2.5057993569       30.1636243173
  C         9.1041828445        2.2959175129       20.8701456387
  C         9.3003720933        3.6869835215       20.0966929040
  S         9.5197103702        6.2124670395       20.0681604547
  H         2.1004917078        7.5564100498       25.7731555357
  H         3.5618991636        7.1769029211       26.5096964458
  C         2.0641327274        5.5330495657       26.5626081587
  N         6.3357620993       -0.6731547076       28.3832601351
  C         5.4984623480       -0.2415908133       30.4985247933
  C         4.9860877800        1.9959929519       31.4336057675
  H         5.3503680221        3.5890429208       30.0351855043
  C         8.0723019053        1.4273170279       20.1664881092
  C        10.3590381718        1.4783614780       21.0557458465
  C         9.5954131715        4.0258885136       18.7653921070
  C         9.7192711502        5.3575888890       18.6053162537
  H         1.3464584137        5.1323278934       25.7806308114
  H         2.7434526546        4.7702147401       26.8127931925
  C         1.0787782277        5.9024863525       27.6263494610
  S         6.2626230674       -2.1295277123       29.1228853743
  N         5.7540541657       -1.6099725578       30.6024833855
  C         5.0669012563        0.5170880517       31.6499221528
  H         4.6415708608        2.7522933294       32.0470613909
  H         8.0046830453        0.4443448595       20.6255014777
  H         8.4811447950        1.3467989552       19.1911932742
  C         6.7131041766        2.2569488303       20.0054087680
  H        10.4738364002        0.8891809620       20.1896682091
  H        10.3003891856        0.8707143657       21.9523714187
  C        11.5795032321        2.4443186774       21.2938598951
  H         9.6733705244        3.2755748712       18.0064188307
  C         9.9961582686        6.1281988962       17.3863347372
  H         0.1047815860        5.4713494045       27.4803873524
  H         0.8961128072        6.9636311028       27.5647191804
  C         1.5978150436        5.5471552882       29.0281329244
  C         4.7916424353       -0.1355069918       32.8841999844
  H         6.8562224896        3.2627072149       19.6077644188
  H         6.1136869969        2.6648383555       20.8754455773
  C         5.7148451130        1.5483407194       19.0567747146
  H        11.5056380332        3.0790413926       22.1490720825
  H        11.7653846558        3.0900435941       20.4500685950
  C        12.7774700079        1.5500944103       21.5030193592
  C        10.0411342676        7.5587545560       17.2531112658
  C        10.0280972986        5.4154104825       16.0862100244
  H         0.8145271443        5.9060299401       29.6694208942
  H         1.6492262317        4.4617989538       29.2231266026
  C         2.8661301265        6.1820369582       29.3660260456
  H         4.8296710056       -1.1595359166       32.8696647835
  C         4.4994712069        0.3692482982       34.1404840492
  H         5.4516010863        0.5694942977       19.4371009759
  H         6.1415447994        1.3749461345       18.0802333418
  C         4.5321554128        2.4530725635       18.6920022285
  H        12.6246055561        0.8629795136       22.3090711842
  H        13.0271923227        0.9961419509       20.6438979023
  C        14.0028221435        2.4716978544       21.6976910394
  N         9.7517383548        8.5034252762       18.2689985746
  C        10.3130215377        8.2175162960       16.0667984567
  C        10.3744774874        6.1424924211       14.9016585988
  H        10.0354637489        4.3106882266       16.0919641271
  H         2.9034927464        6.3798265632       30.4141465002
  H         3.7022913807        5.4837554934       29.0929228124
  H         3.0693196649        7.0703260118       28.7185207203
  S         4.4801381692        2.0325292265       34.6337485224
  C         4.3381485650       -0.5549995132       35.3046969921
  H         4.5216660628        3.2645942797       19.4630599812
  H         4.7033502938        2.9646446069       17.7414460191
  C         3.1712173075        1.8177086202       18.5999716176
  H        13.7343465246        3.2428048250       22.3877859987
  H        14.2518322771        3.0527313191       20.7914501816
  C        15.1475912793        1.6707512506       22.2908358775
  S         9.7128647265        9.9696010436       17.6495942113
  N        10.3275731270        9.5929248094       16.1842794848
  C        10.4894865997        7.6175593664       14.8787532783
  H        10.5650662555        5.5478291157       13.9892642624
  C         4.1153356971        1.5200359168       36.2372418116
  N         4.1016382802        0.1396317251       36.3937224378
  O         4.4231444060       -1.7850046572       35.2089162751
  H         2.3481612222        2.5552464643       18.4469695830
  H         2.8870169301        1.2693681748       19.4542434267
  C         3.1555030661        0.8462507201       17.3767059324
  H        14.8987407736        1.2530079694       23.2762198699
  H        15.5239569393        0.8971995746       21.5641138028
  C        16.2372498441        2.6636176422       22.3964633820
  C        10.8708942401        8.4017195277       13.6512939242
  S         3.9685636144        2.5919158136       37.6002839743
  C         4.0798153094       -0.4356223243       37.6909381631
  H         2.2787941148        0.9979196020       16.7484976266
  H         4.1025643634        0.9921936472       16.7852742891
  C         3.1114098135       -0.5523759231       17.8938272323
  H        15.9325616815        3.6413195114       22.7599025867
  H        16.4405320685        2.7977370395       21.2901088074
  C        17.5257254469        2.1425539735       23.0154234225
  H        10.6383594081        9.4686968510       13.7568360007
  C        11.3838960027        8.0221381878       12.4611548756
  H         3.6652800867        0.1689818617       38.4466176518
  H         3.4470921791       -1.2921221522       37.6810681483
  C         5.5296137299       -0.7999787101       38.1628658898
  H         3.5254325150       -0.5792902985       18.8483831787
  H         3.6745781922       -1.2444000171       17.3464612224
  C         1.6977374644       -1.2484653405       17.9027065726
  H        17.8375088533        1.3359913923       22.3318053932
  H        18.3328560290        2.8248080883       22.8145892483
  C        17.3739139707        1.7367245408       24.4523239729
  S        12.0682948310        6.5376837302       12.0755870028
  C        11.5302460654        9.0212366415       11.3448208514
  H         5.7580245818       -0.3753154055       39.1475164911
  H         5.6532084184       -1.8700552928       38.1475348729
  H         6.1939672258       -0.3779993975       37.3983498375
  H         1.6204272518       -2.0595104284       17.1454931127
  H         1.0715177837       -0.3631371089       17.7521934532
  H         1.5413053070       -1.8070832432       18.8320378195
  H        16.8310141520        0.7636178837       24.5693626485
  H        16.9448244511        2.4760402641       25.0710831207
  H        18.3657035077        1.6238512530       24.8609852079
  C        12.2544635683        7.2140294989       10.4689820081
  N        12.2044486922        8.5324057885       10.3324127193
  O        11.0593652330       10.1950381360       11.3510951922
  S        12.9809758807        6.3879912078        9.0696727945
  C        12.5043565012        9.2878073614        9.1728000934
  H        12.5185288949       10.3538814022        9.2246307625
  H        13.5580839801        9.1045415476        8.7566252236
  C        11.4770066918        8.8953131481        8.1022327750
  H        11.7015594826        8.0878214608        7.4026256538
  H        10.5781987796        8.5186521393        8.5947792566
  H        11.2809130354        9.6848897665        7.3218458608
  H         2.3285083191        3.4309456858       12.7538224102
  C         2.7036126595        2.4021692050       12.5976760994
  H         2.0353538154        1.6931928637       13.0658601270
  C         2.8152999615        2.0687962349       11.0690394405
  C         3.9320349355        2.2575383565       13.4630964728
  C         4.0604653382        2.5532709879       10.2879115943
  H         1.9232632151        2.4557015343       10.5478893970
  H         2.6726949141        1.0265447980       10.9847421554
  H         3.5931832962        2.2327363730       14.5298823446
  H         4.5960606739        3.1373243280       13.3643506641
  H         4.4112609141        1.3734539990       13.2526926747
  C         4.8642146568        1.4027219908        9.7467934547
  H         3.8359862669        3.2927900359        9.4910724055
  H         4.7844853216        3.0310264054       10.9905413284
  C         5.5935172619        1.7352156961        8.4672765083
  H         4.0261411551        0.6680970579        9.5114003398
  H         5.5686741535        0.9346296237       10.4151880964
  C         6.8422916710        2.5640115395        8.6022893089
  H         4.9724349394        2.2645170183        7.7562895979
  H         5.8380912775        0.7976814021        7.9054008106
  C         8.0951067675        1.8380659325        9.0632876783
  H         7.0676821897        3.2298982648        7.7171318524
  H         6.4802471254        3.2280114933        9.3634487420
  C         9.2672629987        2.7534355545        9.2883187126
  H         8.4181037310        1.1266141924        8.2873625101
  H         7.8998913014        1.2044695291        9.9561189276
  C         8.8665719246        4.1243523169        9.9651152247
  C         9.7992523726        3.5671033395        8.0710401917
  C        10.4337219425        2.1766738119       10.1283671605
  C         9.0789761911        5.2485426995        9.1505517990
  C         8.3427550527        4.4585390097       11.2055205726
  C         9.7484994530        4.9052969632        7.9736350096
  C        10.3077574894        2.9721495898        6.9100675089
  H        10.0577733562        1.7851866230       11.0653449300
  H        10.5743193785        1.2346206072        9.5597010418
  C        11.6863675633        2.9820836078       10.5790804877
  S         8.5569709731        6.6699284861        9.8712648903
  C         8.0791847575        5.8250531665       11.2779407858
  H         8.2943953252        3.6626713508       12.0027597154
  C        10.2299181084        5.5145471865        6.8615981963
  H        10.2711779477        1.9487170218        6.9471282881
  C        10.7181611670        3.5782889455        5.7568811496
  H        11.3461956528        3.9759386701       10.8293733937
  H        12.2918954175        3.0021471322        9.7297340890
  C        12.4820327153        2.4096257221       11.7554471158
  C         7.6831026048        6.4309261621       12.5510825560
  C        10.7193845892        4.9138763954        5.6722682978
  H        10.0825774463        6.5764138336        6.8220500874
  C        11.0905975533        3.1353073237        4.5091456249
  H        13.3203222515        3.0956743192       12.0020041118
  H        12.8373306082        1.4977206551       11.4111659405
  C        11.8116860701        2.1076841595       13.1206586541
  C         7.6365305369        7.8160737554       12.8334519594
  C         7.2898256490        5.5200982565       13.7054599861
  C        11.1579771470        5.5732983455        4.4425152188
  C        11.3830718921        4.2013221850        3.7277341183
  S        11.3245341445        1.5864118551        3.7551477002
  H        11.0220365940        2.8441174192       13.3727314612
  H        11.2024089845        1.1384222719       13.0633406592
  C        12.8913142988        1.9673310099       14.1787200745
  N         7.9115491901        8.8540866048       11.9516070826
  C         7.3005934011        8.2838859407       14.1053151904
  C         6.9813669751        6.0105117480       14.9893681087
  H         7.0997221737        4.4876853550       13.5847489131
  C        12.4701010322        6.3689228908        4.5582785647
  C         9.9737305177        6.3386780947        3.8240355576
  C        11.7533886511        3.7997419131        2.4369311764
  C        11.6855742870        2.5061218029        2.2847076399
  H        13.4978199768        2.8868274139       14.2632324842
  H        13.6503070326        1.2422284168       13.8351723542
  C        12.3763717561        1.5009811420       15.4982954882
  S         7.9706402869       10.2609722163       12.7501365046
  N         7.4345602540        9.7013983189       14.1684624652
  C         7.0387409140        7.4904184783       15.2551197840
  H         6.8387413648        5.2817528143       15.7915595106
  H        12.2762954948        7.1831660984        5.2579349297
  H        12.7470781000        6.7106224553        3.5938922771
  C        13.6256787885        5.4552346863        5.0975292560
  H         9.6518008556        7.0936582554        4.5300663781
  H        10.3150370330        6.7846891613        2.9088024184
  C         8.7471929670        5.5694389986        3.4232739954
  H        11.9131024863        4.4916629972        1.6863990751
  C        11.9494158427        1.8351431881        0.9967267865
  H        11.4407985024        2.0412090932       15.7488488771
  H        12.1206833874        0.4153932015       15.4647580421
  C        13.4471947480        1.7123348391       16.5480452040
  C         6.7850047314        8.2615235788       16.4360626465
  H        13.2345131732        4.9413703623        5.9259373917
  H        13.9605997534        4.6912106620        4.3238901765
  C        14.8072555899        6.2843349071        5.6736860231
  H         8.4452044894        4.7101371502        4.0536472501
  H         9.0784495178        4.9307216869        2.5881120158
  C         7.6259199644        6.3629402026        2.7858026512
  C        11.9055611723        0.4283451899        0.7404603856
  C        12.1585708670        2.6278196272       -0.2191341654
  H        14.3527880552        2.2622542452       16.1835398753
  H        14.0113884161        0.8305599937       16.8725349029
  C        12.9698323895        2.5885498774       17.7068873865
  H         6.8714116505        9.3486398309       16.3648888205
  C         6.3986973993        7.8829421732       17.6877017609
  H        14.4679771988        6.9222643606        6.4830990821
  H        15.2086710515        6.9681143559        4.9689421809
  C        15.8997162364        5.3320521686        6.1539664045
  H         7.3302227154        7.1925207684        3.4300097741
  H         7.9827121560        6.8592242000        1.8230134459
  C         6.4226708679        5.4722862746        2.5799630256
  N        11.5889106626       -0.5032846914        1.7545912948
  C        12.1797751847       -0.1960077380       -0.4382390075
  C        12.4616509100        2.0269983579       -1.4603086302
  H        12.2499382489        3.7413842171       -0.2519747070
  H        12.0037554499        2.2250274242       18.1072623001
  H        12.6969538482        3.6842797427       17.3967138514
  H        13.6265694925        2.7860463285       18.5619687837
  S         6.0958639416        6.2592991689       18.1250432155
  C         6.2827039237        8.9209358513       18.7126889917
  H        15.4734251913        4.7934716249        6.9845997874
  H        16.2966143759        4.6524944764        5.3684001601
  C        16.9454074956        6.2940195036        6.6707488679
  H         5.7216413730        5.4150079532        3.4188969327
  H         6.8689357071        4.5099797658        2.4082898047
  C         5.5876596571        5.8653558452        1.3470328940
  S        11.5304530529       -1.9861813138        1.0980655529
  N        12.1251038032       -1.5339309079       -0.3147074593
  C        12.5350558478        0.5250038951       -1.6027393344
  H        12.7716626433        2.6402384092       -2.2655243565
  C         6.0672829745        6.9010119170       19.7910392041
  N         6.0940710582        8.2664878317       19.8749594822
  O         6.1001228537       10.1398520803       18.4550803363
  H        17.4139238420        6.9669397101        5.9317175512
  H        16.4012875984        6.8506795351        7.4291676968
  C        18.0165898130        5.5115454141        7.2949412092
  H         6.2094108146        5.8016731584        0.4711882607
  H         4.8057315396        5.0897655528        1.4314939082
  C         4.8764612448        7.2809607289        1.5274120749
  C        12.9325185467       -0.2669549349       -2.7733891578
  S         5.7859583191        6.0055808719       21.2629705698
  C         5.9753059116        8.9364272457       21.1643667395
  H        17.5609736088        5.0742923912        8.2477149001
  H        18.2724966074        4.6715447688        6.6165004410
  C        19.3297849556        6.2843934847        7.6143065704
  H         5.0318968538        7.7339008754        2.4831491959
  H         3.7654615209        7.2049515755        1.5520365780
  C         5.1828936585        8.2930637232        0.5094647826
  H        12.7841270413       -1.3337186394       -2.6632201460
  C        13.4294708097        0.0264157215       -4.0517713278
  H         5.1304846070        8.4453255321       21.7114253964
  H         5.7817934779       10.0127041448       21.0725179517
  C         7.2439004481        8.9310015204       21.9553791857
  H        19.8404477249        5.7383675282        8.3906524714
  H        19.1609675388        7.2335118158        8.0854173462
  C        20.1860019083        6.2428391730        6.4021560130
  H         6.1246800947        8.6146020577        0.7151995872
  H         5.0577624687        7.7261902030       -0.3816613050
  C         4.1009755979        9.3976163228        0.2963991174
  S        13.9343074443        1.5487660192       -4.6241997405
  C        13.4976971501       -1.1010291438       -4.9898041609
  H         7.4109037227        8.1297235835       22.7240585342
  H         7.3433706639        9.8936485612       22.4527498255
  H         8.0579908809        8.8308314167       21.2410929502
  H        19.8971008179        6.9767392180        5.7815314189
  H        21.2492826306        6.3274172574        6.6919004294
  H        20.1759742219        5.3354927134        5.7751615098
  H         3.7452112410        9.7048750531        1.3304980761
  H         4.5073468278       10.2702181958       -0.2090352598
  H         3.2596029463        9.0144640780       -0.2788542779
  C        14.2673524011        0.7582185617       -6.1440141482
  N        13.9384775520       -0.5965254596       -6.1621778808
  O        13.0924319976       -2.2222178247       -4.7876510334
  S        15.0040609164        1.4851595766       -7.5983612290
  C        14.1722176177       -1.4504828480       -7.3298422310
  H        14.5498347567       -2.3962515456       -7.0268542719
  H        15.0514254605       -1.1550044311       -7.8885480788
  C        12.8961488861       -1.6356790066       -8.2111473832
  H        13.0433721819       -2.5013815352       -8.8712549080
  H        12.6423059924       -0.7626366105       -8.8611043707
  H        11.9815078427       -1.7620747931       -7.5619098641
