352
 i =     5600, time =     2800.000, E =       176.9138818000
  H        12.2804390947        5.9203416388       32.0658460616
  C        11.2945725350        5.5331186886       32.1632506932
  H        11.4921500734        4.5095934201       32.0285390315
  C        10.2927902062        6.0649957563       31.0614969720
  C        10.8939164221        5.8199285054       33.6500360967
  C        10.3662237884        5.3980853674       29.6627921280
  H         9.2562094767        5.9802254444       31.3497713038
  H        10.1654528095        7.1842203219       30.9859261941
  H        10.6043030398        6.9184380696       33.6912680313
  H        10.1232751569        5.2117869730       34.0224117830
  H        11.7055005921        5.6405619517       34.3751231912
  C        10.8096536987        6.2704418732       28.4461830036
  H         9.3580802503        5.0581070496       29.4359685023
  H        10.8377575451        4.4990507792       29.6981761565
  C        11.1826833822        5.4183284012       27.2716276342
  H         9.9372012785        6.8605066936       28.2082200043
  H        11.6853570018        6.9178227755       28.6530460734
  C         9.9622781751        4.6585455674       26.6131913571
  H        11.9829545516        4.7182684543       27.3743230524
  H        11.5059447213        6.1285781581       26.5138903670
  C         8.8075535010        5.7056438973       26.1718169671
  H        10.3656514624        4.0700980807       25.7569702962
  H         9.6149799507        3.9032894117       27.3393791268
  C         7.6003864035        5.0539731188       25.4257520776
  H         8.4527656955        6.1492765717       27.0066249544
  H         9.4086111670        6.2818296980       25.5978496027
  C         7.3144890354        3.8061476217       26.1241145286
  C         8.0265133088        4.4353948864       24.1995494948
  C         6.3149538140        6.0533895996       25.2522698002
  C         7.4833455961        2.6515967938       25.3557473978
  C         6.8743751502        3.4514545515       27.4493985204
  C         7.8754051893        3.0624405751       24.1588221106
  C         8.3884709198        5.0680315498       22.9402210158
  H         6.5489640245        6.6887701593       24.3396906813
  H         6.2251612825        6.6808633984       26.0629488116
  C         5.0460817035        5.4488858306       24.7635981677
  S         6.9846595253        1.1884202618       26.0715664320
  C         6.6087858730        2.1423591107       27.5660609097
  H         6.7120343756        4.2110569046       28.1600874050
  C         8.2695013059        2.3676612322       23.0504397559
  H         8.5222289083        6.1050184164       22.8908441656
  C         8.7448877674        4.3376710166       21.8126245207
  H         5.4142500256        5.0231528535       23.6782359772
  H         4.9116292802        4.5602241130       25.2871639914
  C         3.8047148618        6.3919025647       24.6150774878
  C         5.9932011102        1.4401345544       28.7483906676
  C         8.5764701401        2.9700415742       21.8136803317
  H         8.3040354134        1.3099986847       23.1160667788
  C         9.0901959597        4.6950293036       20.5691186206
  H         3.2188326337        6.1040765179       23.7780328748
  H         4.0751703461        7.4781400394       24.3307173127
  C         3.0357354107        6.4600688446       25.8980414460
  C         6.0106851855       -0.0173076376       28.9695174070
  C         5.6280689085        2.2041920663       29.9404935198
  C         8.9540873034        2.2481898200       20.5613449897
  C         9.3325492157        3.5629317832       19.8430222182
  S         9.5432443817        6.1661318123       19.8234320222
  H         2.2661419556        7.1361203922       25.6592133271
  H         3.4672295287        6.9886879425       26.7283650836
  C         2.3766812957        5.1514948797       26.4476596136
  N         6.2439641695       -0.8797564357       27.8944989611
  C         5.7863465307       -0.6070785833       30.1950912977
  C         5.2966156618        1.6568277080       31.1892665762
  H         5.4189177876        3.2379866379       29.7934281253
  C         7.8041235255        1.5064424753       19.8690923890
  C        10.3105260959        1.4321120530       20.6976033590
  C         9.8534283129        3.9337632539       18.5440178055
  C         9.7437588165        5.2726767428       18.3300408551
  H         1.5412854190        4.9201973647       25.8261086727
  H         3.0706155621        4.3219520507       26.4328156079
  C         1.9210160126        5.3281220927       27.9111895031
  S         6.4297764289       -2.3768617458       28.6397738792
  N         5.8939444448       -1.9763418342       30.1734387105
  C         5.4602713584        0.1688864765       31.4309512013
  H         4.9666558482        2.2217498590       32.0677904076
  H         7.1757381534        1.3535268572       20.6689530585
  H         8.0865439269        0.6288024075       19.2803403473
  C         6.8198009652        2.3749288815       19.0544544152
  H        10.4899749600        0.9292106315       19.7205839568
  H        10.1930058059        0.6313622727       21.4181282098
  C        11.4836677113        2.3610314773       21.1944777044
  H         9.9824653322        3.1686158261       17.7819827059
  C         9.9325089416        5.9729125417       17.0240216671
  H         1.4034195983        4.3898719345       28.1644049458
  H         1.1045470812        6.0871168275       27.9880633875
  C         3.0396644727        5.6347649588       28.9285089862
  C         5.1616792049       -0.5109920123       32.6763400278
  H         7.2988834729        2.9245519955       18.2218982372
  H         6.3796201622        3.1290583488       19.8285655921
  C         5.6416621530        1.5201052896       18.5082820204
  H        11.2233020832        2.7500286456       22.1571239058
  H        11.6601757593        3.2193583251       20.5557657102
  C        12.6503246124        1.5314380832       21.3407883741
  C         9.9680319969        7.4325567515       16.8700937959
  C        10.0612149262        5.0975830183       15.8175966598
  H         3.7541984996        4.8752909256       28.7378354209
  H         3.3857044880        6.7300494344       28.8262872116
  C         2.4201674638        5.6360347710       30.3688470704
  H         5.1242501688       -1.5768055319       32.6018835407
  C         4.7292629626       -0.1265755426       33.9975066942
  H         5.2308430372        0.8525445065       19.2574953097
  H         5.9106934529        0.8808644416       17.6788849952
  C         4.4731347731        2.4357348034       18.0744821130
  H        12.5161176547        1.0667880131       22.3157819080
  H        12.6333212875        0.8429177866       20.4559215231
  C        13.9522912740        2.3512652894       21.3397663244
  N         9.8812046721        8.2887363741       17.8834721943
  C        10.2853108489        8.0839001753       15.6494227566
  C        10.4423613315        5.7737754200       14.6127885671
  H         9.9845588231        4.0616278401       15.8549760850
  H         3.2031547792        5.9679120869       31.1039275351
  H         1.6999636458        6.3630877624       30.5718482470
  H         1.9964436138        4.6836627560       30.7264962530
  S         4.3350514151        1.4226525485       34.4502607917
  C         4.7675260928       -1.1461423530       35.0533187829
  H         4.3823082780        3.4019220521       18.6948964610
  H         4.6634973904        2.9377985411       17.1288305171
  C         3.1286550738        1.6966297031       18.0709946408
  H        13.9514232258        3.1632816733       20.5660642513
  H        14.7335900835        1.6698851157       21.0431375598
  C        14.3060339587        2.8444728537       22.7429497796
  S         9.8715522303        9.8280334800       17.2322152786
  N        10.3157067186        9.4540646503       15.7244457340
  C        10.5835181877        7.2652496062       14.5046794453
  H        10.5476062994        5.1054465599       13.8179320147
  C         4.1039704206        0.7348695789       36.0509442283
  N         4.1529598117       -0.6418391881       36.1291395481
  O         5.0155339800       -2.3437326212       34.9241116834
  H         2.5930537700        2.4079740903       17.3765180555
  H         2.6822640603        1.6339078677       19.0057742665
  C         3.1028352914        0.3459479215       17.2984419783
  H        13.7128098706        3.6864609207       22.9431016546
  H        14.1079335963        2.0932174300       23.4910234251
  C        15.7104365482        3.3280865018       22.8764447870
  C        10.9697905583        7.9808449384       13.3400677512
  S         3.3896250882        1.5307092391       37.4746700521
  C         4.1772723163       -1.4168893204       37.3490304129
  H         2.3138528800        0.3469813189       16.5501713386
  H         4.0349084973       -0.0346375456       16.7598550485
  C         2.6647892638       -0.8994183476       18.1657032738
  H        15.5826740412        4.1106496639       23.5352533944
  H        16.0403906892        3.7844291987       21.9567279014
  C        16.6776640589        2.4285747760       23.5532726064
  H        10.9693248288        9.0510874396       13.3577011753
  C        11.5077392521        7.6758531241       12.1439181005
  H         3.3625690094       -1.0470727737       37.9159466658
  H         3.7412581206       -2.4818991955       37.1802148978
  C         5.5721137645       -1.3462580820       37.9980070166
  H         3.5948919640       -1.2388871463       18.7054866370
  H         2.3395813317       -1.5651925729       17.4339700386
  C         1.4234101726       -0.8796685873       19.0093028360
  H        16.8186968047        2.7947582789       24.5585529834
  H        16.1661343816        1.4504433296       23.7051617492
  C        17.9650453841        2.2430744146       22.7678357564
  S        12.1151258481        6.2154624525       11.5745888147
  C        11.5079478750        8.7432531854       11.1204227946
  H         5.7313500473       -2.3083668883       38.2603422921
  H         6.2099845816       -0.8729389971       37.2687058231
  H         5.7431273264       -0.7179955654       38.9199802742
  H         1.5874080134       -0.6484284809       20.0789058606
  H         0.7932533359       -1.7673268193       18.8297090650
  H         0.6945762135       -0.1306299695       18.6308494370
  H        18.5403970199        3.1585252720       22.7560589859
  H        17.6771822058        2.3032032073       21.7813095897
  H        18.5669350294        1.3221278709       23.0164183912
  C        12.4383277540        7.0137535380        9.9821553149
  N        12.2209945894        8.3626914336       10.0634937710
  O        11.2043883937        9.9608936132       11.2847131168
  S        13.3355203104        6.3287489635        8.6616224308
  C        12.3135598504        9.2099216259        8.8350477201
  H        12.5701599651       10.2830313739        9.1367784366
  H        13.1059108519        8.9153709399        8.1333099388
  C        10.8304967210        9.1123027482        8.1850637491
  H        10.0655967335        9.7397377063        8.7651062160
  H        10.9176998761        9.6801882634        7.2910864721
  H        10.4658569270        8.1089073449        7.8203391932
  H         4.8018283872        1.7415363245       12.5963099964
  C         4.0263795086        2.4103885845       12.7814576212
  H         4.5471971937        3.3533776898       13.1399397062
  C         3.2073807087        2.5687149719       11.5406802936
  C         3.2169953076        1.9407220063       14.0448895971
  C         4.2447054434        2.5823450205       10.4240357829
  H         2.5693503548        3.4437659276       11.7285202748
  H         2.4372634497        1.7743560857       11.2058521298
  H         2.7994185210        0.8982139205       13.9361691271
  H         2.4134943414        2.6761431665       14.2488243661
  H         3.8409656339        1.9407475418       14.9444280576
  C         4.6320948919        1.3175634023        9.6574309776
  H         3.6833360686        3.0253319274        9.6030356573
  H         5.0741817190        3.2426432869       10.6619615855
  C         5.4399190578        1.4908857701        8.4460134651
  H         3.6898729223        0.7939838525        9.3557424057
  H         5.2142855005        0.5863085772       10.1729233107
  C         6.6706815498        2.4153459979        8.5249976612
  H         4.7247003186        1.8496602146        7.6392478260
  H         5.7986698507        0.4179766195        8.2818245550
  C         7.9587384554        1.7129270514        9.1536154441
  H         6.8063603122        2.5023496495        7.5580393592
  H         6.5074103382        3.4248398075        8.8783420900
  C         9.1869357566        2.5929655554        9.2411431803
  H         8.2384153885        0.7998237390        8.6345772158
  H         7.6303084027        1.4723184658       10.1634464948
  C         8.7281257293        3.9546560696        9.8961017406
  C         9.5015300113        3.2806468228        7.9448132564
  C        10.3974369786        1.9209204315        9.9481800593
  C         8.9400400248        5.0734491041        9.1256023993
  C         8.3129590632        4.3076304590       11.2266307078
  C         9.3885086832        4.6627902709        7.8629050263
  C        10.0369969802        2.6406925901        6.8286415893
  H        10.2006533538        1.3989566886       10.8204815149
  H        10.9398799428        1.0851583862        9.3604204028
  C        11.5224181601        2.9806424873       10.2807092583
  S         8.5284319776        6.5551450662        9.8105965034
  C         8.0236497270        5.7081755855       11.2801852525
  H         8.3424563881        3.6138482119       11.9890592517
  C         9.8438130956        5.2970864620        6.7042286916
  H         9.9740685584        1.5786172454        6.9462783160
  C        10.3312150799        3.2525429600        5.6447264428
  H        11.1820095016        3.9259684847       10.7987549923
  H        11.8932432133        3.1683568132        9.2918532261
  C        12.5736338015        2.3610130584       11.2398046465
  C         7.4747565286        6.4152572681       12.4295815757
  C        10.1486396812        4.6008362274        5.5326447489
  H         9.9988280548        6.3421633133        6.7912234973
  C        10.7292387579        2.8119852010        4.3984774033
  H        13.2627603671        3.1188860839       11.3209530792
  H        12.9451241559        1.3782967899       10.9582130831
  C        11.8841389167        1.9727656593       12.5757988608
  C         7.6306665684        7.7928177328       12.7747981253
  C         6.8656207380        5.6025633673       13.4643504848
  C        10.4913559547        5.2455882309        4.2606467661
  C        10.7360233365        3.9265655277        3.5022170481
  S        11.0892381018        1.3410938775        3.6093379873
  H        11.1223933299        2.7185166061       12.8315603499
  H        11.4201836969        0.9583708324       12.5356596319
  C        12.9263649493        1.8905774560       13.6678714302
  N         8.1595325682        8.7150179020       11.9176193865
  C         7.1912742783        8.2868438847       13.9295505384
  C         6.6322803262        6.0492334758       14.7230885441
  H         6.7489327900        4.5567015351       13.3375896063
  C        11.8189213854        6.1095565380        4.2580785144
  C         9.3719212870        6.0782788110        3.6169533065
  C        11.1612192104        3.4457590840        2.2270822234
  C        11.1703785814        2.1184321873        2.1291433514
  H        13.6978873552        2.6673148290       13.5316003040
  H        13.4877383000        1.0364493131       13.5202249787
  C        12.4491831843        1.6953174410       15.0612429875
  S         8.1497901133       10.1669632071       12.6630715520
  N         7.2804556637        9.6798621213       13.9803961761
  C         6.7589773377        7.4702739176       15.0193183221
  H         6.2413211066        5.3727638677       15.4378394522
  H        11.8014537350        7.0553163469        4.7464002860
  H        12.1083360490        6.5699635822        3.2958570139
  C        13.0372946632        5.2391357593        4.6159305994
  H         9.0929666682        7.1019275216        3.9927936897
  H         9.7945378962        6.3309283450        2.6237838110
  C         8.0274664428        5.2785639059        3.3281356264
  H        11.3991158439        4.1956821459        1.3685302359
  C        11.4822621691        1.2990263252        0.8271415564
  H        11.8787496176        2.6955542310       15.1063606001
  H        11.7036988271        0.9683089409       15.2481992631
  C        13.5144321670        1.9623762918       16.0350525025
  C         6.6199504795        8.1775335910       16.2656392184
  H        12.7236566592        4.7060769662        5.5021078823
  H        13.2369149336        4.4334371143        3.9884124130
  C        14.3567103418        6.1079885358        4.8698903772
  H         7.5530780265        4.8826466490        4.2099979878
  H         8.3644649156        4.4824394625        2.5995407564
  C         7.0548756031        6.2914623192        2.6467835433
  C        11.6162481414       -0.0582392492        0.7031159382
  C        11.6289662932        2.1437200495       -0.4110190586
  H        14.2402932005        2.6681205059       15.6942631194
  H        14.1959530752        1.0717686019       16.1801284223
  C        12.9376996916        2.3578554319       17.3980895158
  H         6.7085804874        9.2403679195       16.1902377551
  C         6.3681700196        7.7892551646       17.5668501465
  H        14.0905308813        6.9600069449        5.5465938684
  H        14.8361325741        6.5435999325        3.9510134034
  C        15.3746171226        5.2758121305        5.6819600608
  H         7.0912982976        7.0600053385        3.3175394762
  H         7.5121892392        6.4154092923        1.7633305587
  C         5.7053508905        5.7289339667        2.2792120074
  N        11.3252747207       -1.0438367058        1.7263002394
  C        11.8974682709       -0.6554861782       -0.5861187993
  C        11.9219310696        1.6115247425       -1.5576865520
  H        11.6073257557        3.2056788451       -0.2906202957
  H        12.2177787028        1.6242293160       17.8141136543
  H        12.6250786572        3.4125143055       17.6021720386
  H        13.7717691201        2.3177781650       18.0195660241
  S         6.0081810927        6.2051082160       18.1198715812
  C         6.3597714426        8.8709219988       18.6310170345
  H        15.0134872701        5.2668168412        6.6672641300
  H        15.4114905982        4.1627399790        5.4502675809
  C        16.7457437432        5.7628150976        5.5159134112
  H         5.2363868079        5.4501186271        3.1848604521
  H         5.8928870041        4.7775776659        1.6902034058
  C         4.8397274142        6.6998530950        1.4042979990
  S        11.7336548562       -2.5018329934        0.9865755753
  N        12.1000826510       -1.9909180128       -0.5801121412
  C        12.1421058965        0.1748900082       -1.6787814341
  H        11.9531327046        2.2370671080       -2.4534617728
  C         6.0465405485        6.8932928293       19.7293358909
  N         6.1411126005        8.2444246790       19.7749199615
  O         6.3937194979       10.1190502005       18.3666842635
  H        16.9853374553        5.6126298724        4.4933297071
  H        16.8171598211        6.9029260944        5.5149252317
  C        17.6797439769        4.8986730629        6.3991556951
  H         5.5269917619        6.9759799375        0.5696510930
  H         4.0846031224        6.0894669999        1.0156654460
  C         4.2896389599        7.8768537155        2.0854948619
  C        12.5380412023       -0.5291201444       -2.8469345888
  S         5.5931150862        5.9841802663       21.2314018387
  C         6.1088478701        8.9322932664       20.9531061199
  H        17.1171431567        4.6261369610        7.3037829501
  H        18.1544634549        3.9500188734        5.9519681721
  C        18.8643643193        5.6987574009        6.9490800671
  H         4.9970414919        8.5896683663        2.3585089664
  H         3.7351672526        7.5648225647        2.9243183962
  C         3.2698010109        8.7491872932        1.2623848335
  H        12.2695365228       -1.5789261939       -2.9491296279
  C        13.1665575658       -0.1121575010       -4.0254020995
  H         5.3999764443        8.5974913547       21.6672376073
  H         5.8077809196        9.9313661593       20.6860786465
  C         7.3516082694        8.7568095472       21.8449245766
  H        19.5272755049        5.0613052940        7.5293686623
  H        18.6835318087        6.5005142238        7.7498500039
  C        19.7241411685        6.1757038179        5.8988502904
  H         3.2912438141        8.3301408741        0.2388412283
  H         2.1905649104        8.6549404730        1.5533736124
  C         3.7644070979       10.0949035046        1.1684237506
  S        13.6880145225        1.5064751242       -4.2991164258
  C        13.3278890665       -1.0904257427       -5.1483872829
  H         7.9259990080        7.8588522026       21.8171109436
  H         7.0887740639        8.7939095046       22.9350706314
  H         8.0566551150        9.4918871568       21.8294659344
  H        19.1676749103        6.9938049912        5.3335735464
  H        20.6590370520        6.5582725302        6.1154521436
  H        19.8675861616        5.4009243832        5.1405600435
  H         3.4797758051       10.6612137004        2.0256772613
  H         4.8252802654       10.3217987748        0.9440083741
  H         3.2512936117       10.4938412380        0.3459941088
  C        14.1817947441        0.9885585897       -5.9346917571
  N        13.9885788463       -0.3976344264       -6.1098354374
  O        13.0785695164       -2.2125888715       -5.1127221750
  S        14.9211633737        2.0260836431       -7.0762516671
  C        14.3012713355       -1.0606604623       -7.3392373765
  H        14.6913205917       -2.0048050919       -7.1202002067
  H        15.1360162355       -0.5130754270       -7.8031047600
  C        13.0260705580       -1.1738777202       -8.2715555959
  H        13.0778435705       -1.2912362063       -9.3794012850
  H        12.2616536918       -0.4954424278       -7.9732478972
  H        12.7898485809       -2.2776448115       -8.0897298701
