352
 i =    62400, time =    31200.000, E =        98.5077265836
  H        11.5476237595        4.8932645719       32.2388607480
  C        10.6026443699        5.4505687255       32.3882369529
  H         9.8052645729        4.7502561525       32.4840232095
  C        10.3909923050        6.3248893896       31.2426672756
  C        10.7741816178        6.1609402021       33.7356844634
  C        10.4911983040        5.4266957845       30.0516676611
  H         9.3914225318        6.7173025229       31.1385119550
  H        11.2104176944        7.0504939589       31.1222921852
  H        11.2573778341        5.5701661909       34.4912472588
  H        11.3582659996        7.0591458737       33.4855544400
  H         9.7988665985        6.4371177927       34.1879035868
  C        10.5138018876        6.2030629777       28.7591338571
  H         9.6708509586        4.7736379387       30.0576639760
  H        11.4187917188        4.8024353727       30.1636018809
  C        10.5646627349        5.2065506064       27.6045437491
  H         9.6239918227        6.7838118155       28.7625108935
  H        11.3643687587        6.9252568080       28.8172619903
  C         9.2635962854        4.8180526861       26.9513244497
  H        11.2453864508        4.3189694200       27.7821430912
  H        11.1340947250        5.6153357050       26.7727172374
  C         8.4516235656        5.9801244165       26.3681589945
  H         9.6167365628        4.0365994209       26.3050566722
  H         8.7160955325        4.3554810434       27.7473929802
  C         7.2151986921        5.4866043104       25.4547339623
  H         8.0511618097        6.6604863328       27.1889740389
  H         9.1302700279        6.7508496392       25.8868731104
  C         6.7579580610        4.0981599650       26.1070785639
  C         7.6581369119        4.7797333621       24.2085623181
  C         6.1320927333        6.5557892364       25.3093851280
  C         7.0561100076        3.0370422141       25.2934681400
  C         6.0609784173        3.7216257947       27.2855951691
  C         7.5872461366        3.4268340371       24.0803725155
  C         8.2017871152        5.3509686722       23.0171769206
  H         6.5603425660        7.4169402875       24.7459589874
  H         5.7952419822        6.8751048715       26.3256149977
  C         4.9306285108        5.8891277585       24.5810189698
  S         6.6317342111        1.5727986915       25.9816557978
  C         5.9527541685        2.3444994312       27.4030444538
  H         5.8425744106        4.5559323061       27.9269631297
  C         8.0598337546        2.7856785836       22.9336520232
  H         8.3932330005        6.4123894712       23.0967675637
  C         8.5402256266        4.7098468875       21.8848817619
  H         5.2110554253        5.7721429442       23.5650361550
  H         4.6617400366        4.9017408805       24.9784476239
  C         3.7111010807        6.7991978608       24.4476615030
  C         5.5982716413        1.6193927736       28.6550797281
  C         8.4836142461        3.3652124033       21.7813673440
  H         8.2453658751        1.7068730174       22.9200639581
  C         8.9990383811        5.0619978916       20.6339677419
  H         3.1747964875        6.5870689589       23.5534967595
  H         4.0890369657        7.7938104172       24.3136401314
  C         2.8900257019        6.8454315339       25.7842834091
  C         5.6631240918        0.2388112753       28.9136704491
  C         5.1552901004        2.4405884329       29.8150521936
  C         8.8989892083        2.7051283590       20.5160993100
  C         9.2318733221        4.0307661285       19.8346796539
  S         9.1556154233        6.5637539653       19.9107799120
  H         2.3219930081        7.7545968648       25.8250128388
  H         3.6902113729        6.9766842382       26.5249721772
  C         2.0779671680        5.6096075039       26.0664216566
  N         6.0465625318       -0.7695969354       28.0549521495
  C         5.4322938732       -0.2794025175       30.1734740325
  C         4.9076068695        1.8867694404       31.0969317102
  H         4.9154671215        3.4588604046       29.7506600506
  C         7.6362452309        1.9771644610       19.8694715529
  C        10.1062933572        1.7430912709       20.6703082205
  C         9.7668061777        4.4296446065       18.6534304484
  C         9.7871688405        5.8326993381       18.5113139213
  H         1.5830514608        5.3403427708       25.1494725743
  H         2.7670438237        4.7745269793       26.1901209062
  C         1.3159754053        5.4767884540       27.4252282847
  S         6.1851303995       -2.1730560063       28.8438892609
  N         5.7239667670       -1.6261718763       30.3081916780
  C         5.0490185994        0.4154391816       31.3278960823
  H         4.6061912114        2.6508620646       31.7892726070
  H         7.3781270293        1.1855421821       20.5260076080
  H         7.8957293790        1.6063851522       18.8529712738
  C         6.3456287064        2.7500388118       19.6758787775
  H        10.4231268286        1.3621386271       19.7267931705
  H         9.8251259903        0.9376447133       21.3566159544
  C        11.3909328268        2.3113091117       21.2715554509
  H        10.0109946882        3.7230686809       17.8513600756
  C         9.9437279067        6.5630386156       17.2080843295
  H         0.6494446945        4.6473088111       27.3789832319
  H         0.6201292003        6.2226956487       27.4956926069
  C         2.3057602840        5.4436245962       28.6512071506
  C         4.9896144051       -0.2062275468       32.5970162205
  H         6.6661276528        3.5913195534       19.0489023760
  H         5.9274142338        3.0585927815       20.6031379213
  C         5.3022036211        1.8105110368       19.0342515280
  H        11.1506472070        2.7037477012       22.1995334422
  H        11.6976640455        3.1260245804       20.5820427636
  C        12.5386093375        1.2894650791       21.3307422660
  C         9.9411542247        7.9229413723       16.9362909589
  C        10.1850062897        5.8470653448       15.9687042094
  H         2.5444377498        4.3926015585       28.7533454105
  H         3.2411934410        5.8843915704       28.4179188725
  C         1.6334831514        6.1470843353       29.8357395372
  H         5.0017608553       -1.2506415316       32.5982800364
  C         4.6414788302        0.2720034940       33.8171669860
  H         5.2796856995        0.8891821495       19.6701370315
  H         5.6483598836        1.4104323088       18.1056122115
  C         3.9258516644        2.3768481641       18.7376065169
  H        12.3707086300        0.5429945659       22.0976906277
  H        12.4394485185        0.7687275900       20.3969623278
  C        13.8436007568        2.0739793274       21.4258023185
  N         9.7755344111        8.8445265743       18.0013067990
  C        10.1626608176        8.5573929301       15.7427309693
  C        10.1881000757        6.3806784413       14.6764591733
  H        10.2007985841        4.7426381453       16.0044473786
  H         0.8299993709        5.4693438484       30.1990407845
  H         2.2847760040        6.1551616224       30.6922483240
  H         1.3381511690        7.1457928997       29.6348283795
  S         4.3719931788        1.9600523732       34.2593528626
  C         4.5369694233       -0.7302700590       34.9492378736
  H         3.8974976558        2.9962690209       19.6721458083
  H         4.0654077930        3.0508436413       17.8802391017
  C         2.9086027695        1.2064006791       18.7461587564
  H        13.7873724034        3.0217872385       20.8718154247
  H        14.5266032799        1.5398354984       20.7579705886
  C        14.4201971287        2.2648708979       22.7931329559
  S        10.0338212415       10.3304826703       17.4843049286
  N        10.3061690564        9.9037108583       15.8904429876
  C        10.3612975957        7.8129505858       14.5665081920
  H        10.3434403359        5.7895219775       13.8041754314
  C         4.0407864648        1.2784985099       35.9070517722
  N         4.0590054345       -0.0517233932       36.0456123706
  O         4.7619941174       -1.9234007968       34.9019464132
  H         1.9578151850        1.3805406727       19.1312071110
  H         3.1974493944        0.4702477519       19.3968607491
  C         2.8125283541        0.5760772630       17.3472623625
  H        13.6159274476        2.4056658973       23.4908640012
  H        14.8538578956        1.3519112410       23.1598051333
  C        15.3908155166        3.4202474503       22.9250417992
  C        10.7204805283        8.5387582746       13.3759640574
  S         3.8042542749        2.0946382962       37.4122039333
  C         3.9464586860       -0.7846513087       37.3207040749
  H         2.1249167471        1.1647638520       16.7560853367
  H         3.7991875567        0.8904621130       16.8681894790
  C         2.5262994196       -0.9390157070       17.3617049397
  H        15.3498094221        3.7298563931       23.9089964222
  H        15.0912393106        4.2377808140       22.2006442123
  C        16.8720660050        3.0241957252       22.6976661999
  H        10.5634994288        9.6190251258       13.3865885579
  C        11.3393396553        8.1471058932       12.1697704538
  H         3.1576181607       -0.4666961893       37.9543030818
  H         3.7351262895       -1.8151843812       37.0676003109
  C         5.3256463288       -0.8919036543       37.9472530589
  H         3.2396293189       -1.3978904661       17.9837390280
  H         2.6728343500       -1.4560531765       16.4437779334
  C         1.2417199070       -1.3191796236       18.0706822676
  H        17.1701147862        2.8194282084       21.6288111328
  H        17.4197836417        3.9693772993       22.8464278161
  C        17.3071567871        1.8727199645       23.5486378676
  S        11.9846360884        6.6037679765       11.7795457362
  C        11.3175793030        9.1215176232       11.0471045464
  H         5.3975705122       -0.4787686272       38.9598103707
  H         5.5521759316       -1.9781035360       38.1213073734
  H         6.1777211142       -0.5130046077       37.3108390029
  H         1.2148103897       -2.4162195057       17.8082056206
  H         0.2856061592       -0.9063354346       17.6887052869
  H         1.2614152212       -1.2144822802       19.1620600747
  H        17.0207173396        1.9214599355       24.5501784953
  H        18.4093019725        1.9592899742       23.6433548500
  H        17.2154151278        0.8691601056       23.1072422100
  C        12.4795686050        7.3827294466       10.2864609341
  N        12.0315560308        8.6466444683       10.0351208902
  O        11.0088027774       10.2661125230       11.2307343248
  S        13.0857995634        6.4230624068        8.9046474968
  C        12.2782497700        9.4390428184        8.8395722450
  H        12.2230846528       10.4734284885        9.1674686562
  H        13.2133341041        9.2310542319        8.4306535723
  C        11.1718385543        9.2654033943        7.8105241519
  H        11.1715327804       10.1322762593        7.1796228562
  H        11.2930812261        8.4294516242        7.1108597965
  H        10.1756526116        9.2867798553        8.3122023901
  H         4.3882786359        1.6269668696       12.5187573578
  C         3.8407522301        2.5411330218       12.6317799895
  H         4.5805688007        3.4030979694       12.6274191747
  C         2.8833860436        2.7288928523       11.3548677098
  C         3.0590519827        2.5948774006       13.9511526974
  C         3.8462464734        2.9423544070       10.2314691108
  H         2.1786206586        3.5964974912       11.4701686266
  H         2.3371958826        1.7748464037       11.2471784105
  H         3.8780068809        2.7232149338       14.7752210915
  H         2.5706420640        1.6263025476       14.0797614379
  H         2.3076247026        3.4277649722       13.9886717872
  C         4.4569424180        1.6098859426        9.6190501530
  H         3.1597053533        3.5671088436        9.4780563747
  H         4.6328335317        3.6303619173       10.6729999321
  C         5.0514057017        1.7983670434        8.1909271974
  H         3.5943565971        0.8719419605        9.6822524699
  H         5.1826649022        1.2790219089       10.4015463912
  C         6.2987842046        2.6556294776        8.2629298757
  H         4.3511708177        2.2933477139        7.5061942637
  H         5.2419939973        0.9862495195        7.5361748784
  C         7.5882032709        2.0202580275        8.7962577916
  H         6.3886297549        3.2824116410        7.3757556506
  H         6.0171496403        3.4185053188        8.9581411001
  C         8.7339018290        2.9989500443        9.0016180226
  H         7.9528038534        1.3765071404        7.9907720994
  H         7.3476809920        1.4351036277        9.6977747199
  C         8.3205833317        4.3553936872        9.6035130205
  C         9.3101304619        3.6865845789        7.8028512803
  C         9.7676171009        2.3557950150        9.9776489775
  C         8.6969820001        5.4499905643        8.8440266290
  C         7.8024792637        4.7582864410       10.8025341919
  C         9.2987994603        5.0276205470        7.6701791439
  C         9.8760805422        3.0565386509        6.7092767359
  H         9.2901113136        1.7835413445       10.7663154693
  H        10.2780887813        1.6447553668        9.3328067058
  C        10.9035073788        3.1814556391       10.5989730819
  S         8.4609517762        6.8919210676        9.6562357777
  C         7.8106398993        6.0766508391       10.9767793711
  H         7.6265712055        4.0132538888       11.5849176243
  C         9.7450620577        5.5978665032        6.4995549280
  H         9.7236475727        2.0271027042        6.6814922994
  C        10.3636303747        3.6071623601        5.5515360999
  H        10.4944403142        4.1086399243       11.0150339369
  H        11.5841767268        3.4989938483        9.8345210087
  C        11.7357348433        2.5295949151       11.6279180280
  C         7.4486334746        6.8219680195       12.2283536168
  C        10.4114634139        4.9557352672        5.4823000635
  H         9.4983092681        6.6405720022        6.3251732572
  C        10.8080278057        3.1201921164        4.3132357072
  H        12.6509448182        3.0990688878       11.6731591338
  H        12.0581130191        1.4530068902       11.4358396326
  C        11.1214209300        2.5542012731       13.1059010914
  C         7.4563686750        8.2284424076       12.5053012320
  C         7.1364113348        5.9895388281       13.4094286593
  C        10.8131231297        5.5523118521        4.2077642695
  C        11.1338745586        4.1798013486        3.5438269615
  S        10.9706409636        1.5951022914        3.4960320876
  H        11.0321435696        3.6611490139       13.3969349860
  H        10.1230933219        2.2206409021       12.9663147419
  C        11.8893375838        1.8276287915       14.1587055534
  N         7.7177306623        9.2246026148       11.5428544853
  C         7.2962364269        8.7678952227       13.7773361998
  C         6.8495120977        6.5356290859       14.6506845535
  H         6.9539981002        4.9198600240       13.2314261888
  C        12.1910272155        6.1864813719        4.3513794580
  C         9.7605431729        6.5341296891        3.5604591075
  C        11.4884422380        3.7334628959        2.2335614912
  C        11.4473747094        2.4017702882        2.0250748475
  H        12.9866888897        1.9079551168       13.7969686587
  H        11.7263512853        0.7597311140       14.0914171794
  C        11.8569630042        2.5259842463       15.4916085336
  S         7.8580897718       10.6696278564       12.2881977939
  N         7.4754511289       10.1469045879       13.8301232093
  C         6.9681799840        8.0429146583       14.9248462197
  H         6.6472114579        5.8147402848       15.4368425107
  H        12.0720301528        7.0850852172        4.9549708554
  H        12.4020823029        6.4609982642        3.3518577672
  C        13.3098592581        5.3231569539        4.9295631254
  H         9.4691334417        7.3473395216        4.1932378976
  H        10.2887746018        7.0105652986        2.7408041985
  C         8.4959967658        5.7731037310        3.2200137688
  H        11.6889251927        4.4479421571        1.4917675147
  C        11.6674327237        1.6435803323        0.7614212231
  H        11.8855715366        3.5826344828       15.3278856099
  H        10.9490308569        2.3815883885       16.1100406787
  C        13.0662434802        2.0378382800       16.2610469080
  C         6.5789597384        8.6971029557       16.1255142208
  H        13.0318786960        4.7566713839        5.7594232399
  H        13.6508500453        4.6023740376        4.1734083176
  C        14.4657781518        6.2913429086        5.2900399467
  H         7.8667457955        5.5963943923        4.0877242113
  H         8.8288800015        4.8489919596        2.8086700970
  C         7.6371698198        6.4649104988        2.1588284036
  C        11.7358658127        0.1994358997        0.6560360009
  C        12.0219568169        2.4233653629       -0.4749985560
  H        13.9343529055        2.3270992949       15.7585124545
  H        13.0703352036        0.9957371862       16.2775776368
  C        13.1341898879        2.4906775264       17.7012181009
  H         6.7494773376        9.7537297507       16.1104402918
  C         6.4077172101        8.1952868385       17.4088404473
  H        13.9709469808        6.9848422744        5.9888571291
  H        14.8534103901        6.9372640926        4.4707830065
  C        15.4761482568        5.3969787233        5.9536553429
  H         7.4542147299        7.4616105768        2.4221662379
  H         8.2135280964        6.6055972127        1.2516031140
  C         6.3226062197        5.8250865667        1.7879322578
  N        11.6849650064       -0.7389807711        1.7236906784
  C        12.0743559232       -0.4056600318       -0.5048952516
  C        12.2050222567        1.7634507278       -1.6770363462
  H        12.0880669749        3.4669307697       -0.3399317635
  H        13.3463076168        3.5647417895       17.8072648772
  H        13.8310518453        2.0095426386       18.3024929624
  H        12.2795882284        2.2024203351       18.2287389251
  S         6.3754217732        6.5184493700       17.9031868672
  C         6.1102225048        9.1342981600       18.5256928243
  H        15.0335199758        4.7424041476        6.7677561754
  H        15.8259959987        4.5895025410        5.3086642750
  C        16.5722737799        6.3252351103        6.6125281502
  H         5.8511400143        5.1312996826        2.5093404021
  H         6.2948052984        5.1163046158        0.9242295110
  C         5.3593455052        6.9706035400        1.3883876377
  S        11.8396940396       -2.2585254602        1.1231561459
  N        12.3170986601       -1.7684622021       -0.3991095574
  C        12.2427744588        0.2641209987       -1.7011767628
  H        12.2873780579        2.3052274019       -2.6007062159
  C         5.8672831348        7.0830415924       19.5194156992
  N         5.7762031895        8.4187181000       19.6544660380
  O         6.0692343907       10.3558736480       18.4004793648
  H        17.0599353570        6.8960024914        5.8554865162
  H        16.1105700059        7.0161783894        7.3658083992
  C        17.6015658797        5.4661639535        7.3083984499
  H         5.7874903724        7.6953870569        0.6381715291
  H         4.5259241461        6.4398098380        0.8171759550
  C         4.7177085670        7.7140813399        2.5286589335
  C        12.5900720518       -0.4959044625       -2.8528049810
  S         5.6891247851        6.0722764646       20.9554588775
  C         5.4928223593        9.0473954296       20.9261490195
  H        17.2345208048        5.0671236040        8.2084152177
  H        17.9273013336        4.6304849554        6.6276055210
  C        18.8238767237        6.3176926703        7.6862861595
  H         5.4013420812        8.4410875991        2.9045644211
  H         4.3388762313        7.0378764591        3.2525466422
  C         3.6054446214        8.6264598417        2.0774466473
  H        12.4223675363       -1.5258996797       -2.7402886987
  C        13.2136792933       -0.2666284312       -4.0732384722
  H         4.8802792678        8.3952563342       21.4927674585
  H         4.9483917139        9.9272422640       20.7690319649
  C         6.7579013668        9.3104325942       21.7795801647
  H        19.3892011016        5.8409195526        8.5274866832
  H        18.3429761143        7.1926683944        8.0519187178
  C        19.6604616515        6.5500200500        6.4321685527
  H         2.6485523782        8.1001397014        2.0661826288
  H         3.5427654464        9.3756514141        2.8351707636
  C         3.8155499338        9.2468390307        0.7186646112
  S        13.7839839249        1.2202438907       -4.6560345426
  C        13.2114460883       -1.4353233852       -5.0862224276
  H         7.5681434505        9.7339196386       21.2875865822
  H         7.0936379186        8.3609402444       22.3475621288
  H         6.6019876033       10.0227850361       22.5768191779
  H        20.7037204032        6.8533047501        6.6958044428
  H        19.8306914406        5.6680011822        5.8201647282
  H        19.2394879907        7.3299007595        5.7593804066
  H         2.9344305152        9.9396247643        0.5499252359
  H         4.6896439963        9.9106632712        0.5842328413
  H         3.6540325749        8.4962641235       -0.0792590228
  C        13.8713957600        0.4548455274       -6.2268214187
  N        13.6676791977       -0.8746012258       -6.2224121728
  O        12.8038557528       -2.5776943199       -4.8887695762
  S        14.2168694151        1.3003827647       -7.8029606612
  C        13.5996365234       -1.7094259704       -7.4770833721
  H        13.7885098756       -2.8102338353       -7.1649845900
  H        14.4265839256       -1.3911067187       -8.1409066406
  C        12.2924556366       -1.4058191740       -8.2025442741
  H        11.5596503258       -2.2185056863       -8.2295660799
  H        12.5017983363       -1.1579156363       -9.2584378312
  H        11.8588148051       -0.4802588061       -7.8175996476
