352
 i =   123900, time =    61950.000, E =        98.7960426524
  H         9.1143524143        5.7339481842       32.6477695438
  C        10.1332125984        6.0166590012       32.5523394620
  H        10.0470530529        6.9409050624       33.0225192866
  C        10.7090863623        6.1456781417       31.1611660711
  C        10.7650121829        5.0432881005       33.4232872394
  C        10.1662467761        5.0793854227       30.1507199879
  H        10.4423945751        7.1261237489       30.7446583837
  H        11.8258538797        6.0557710414       31.2519206325
  H        10.9430798827        5.4777534728       34.4203167617
  H        10.2927608355        4.0847054955       33.6121951227
  H        11.7548694769        4.7881340589       33.0681818085
  C        10.9210389861        5.0354926645       28.7765097684
  H         9.1283581820        5.2002707268       30.0167703928
  H        10.3171278073        4.0815366870       30.4454209149
  C        10.2303268654        5.9011527077       27.7995136938
  H        11.8980437213        5.4671462808       29.0299535987
  H        11.1286218408        3.9776595865       28.4392526133
  C         9.4128019172        5.0953788104       26.8074441062
  H        10.9338093898        6.3877420675       27.0873215703
  H         9.7330097596        6.7193085516       28.2665877951
  C         8.3206370808        5.9800142761       26.1345808308
  H        10.0678841268        4.7059376786       26.0627477818
  H         9.0017911904        4.1529603210       27.1399135075
  C         7.0494283715        5.2730927585       25.6040082470
  H         8.0359080241        6.8240548568       26.8075738026
  H         8.8351162450        6.5627196012       25.4086163163
  C         6.6494879566        3.9835926827       26.3072696499
  C         7.4240858030        4.6006396924       24.3424545044
  C         5.8388330732        6.2469595409       25.3911967877
  C         6.8196986975        2.8998415588       25.4689735370
  C         6.1040366019        3.6021725921       27.5669597106
  C         7.3546719658        3.2651041232       24.2598774785
  C         7.9304952861        5.1597824433       23.1945152834
  H         6.1362034507        7.0140649620       24.6670515345
  H         5.6539793860        6.7066167851       26.4315091079
  C         4.5727913910        5.5039480674       24.9099926706
  S         6.3709063109        1.4281505133       26.1847939780
  C         5.9917708791        2.2471481778       27.6327051025
  H         5.8430409910        4.4331864513       28.2950964137
  C         7.6633929714        2.6544639001       23.1091954303
  H         7.9619277835        6.2574841438       23.1343892770
  C         8.3206641460        4.5895115959       22.0254823658
  H         4.6694107085        5.0009346808       23.9445640455
  H         4.2536635708        4.6959167534       25.5666891109
  C         3.2875280873        6.2916647739       25.0884867278
  C         5.6499010818        1.4971529430       28.9143218425
  C         8.1818882529        3.2228333890       21.9085319145
  H         7.5271180399        1.5805836017       23.0591114071
  C         8.7747996633        5.0160709502       20.7980297005
  H         2.4493989116        5.9043333690       24.4471548927
  H         3.4512454692        7.2398335622       24.6661304342
  C         2.5978989897        6.3923109538       26.4112693188
  C         5.7285515794        0.0919448180       29.1574622398
  C         5.1413739559        2.3002236422       30.0543855061
  C         8.5981130423        2.5673449282       20.6699540806
  C         8.9995637673        3.9004410185       20.0115532184
  S         9.1144118604        6.5170045165       20.0202516328
  H         1.7668302593        6.9578914025       26.1478232977
  H         3.2354384557        7.0046810892       27.0515202538
  C         2.2349973880        5.1701686794       27.0820015409
  N         6.1311815113       -0.8272904534       28.2076001796
  C         5.4821274501       -0.4446516435       30.3777593416
  C         4.8777509330        1.7235119215       31.3273992843
  H         4.8779633881        3.3457951344       29.9101263322
  C         7.4277746036        1.8407499357       19.9433580076
  C         9.8474940615        1.6629091460       20.9254247186
  C         9.4001863366        4.2853951167       18.6966333598
  C         9.5388864847        5.6182665964       18.5613634978
  H         1.7203960664        4.5407019481       26.3333411732
  H         3.1250062226        4.5981612343       27.4386372762
  C         1.2195800556        5.1391670007       28.2130350035
  S         6.2170965322       -2.2580618812       28.9124443058
  N         5.7521295259       -1.8126862985       30.3926025128
  C         5.0177406787        0.2747437618       31.5359540217
  H         4.5099022762        2.3180390869       32.1582054430
  H         6.9816942903        1.2268038759       20.6553458775
  H         7.7899820426        1.3226622046       19.0962398449
  C         6.1789752665        2.6820028783       19.4865132210
  H        10.0607897834        1.1427795872       20.0161240111
  H         9.6733483143        0.8698515003       21.6448863541
  C        11.0436335146        2.5474411635       21.3705469075
  H         9.4447522875        3.4060497676       18.0328632040
  C         9.9082030547        6.2906372081       17.3321435606
  H         1.0752723076        4.0910358484       28.5415725230
  H         0.2271037531        5.4655437407       27.7802463269
  C         1.7062015498        5.9830191287       29.3912835772
  C         4.7677591405       -0.4414952249       32.7345214038
  H         6.5822367851        3.5640168523       18.9738738478
  H         5.7658410295        3.1097723815       20.3416126107
  C         5.1363706563        1.9498860729       18.6813550300
  H        10.7977640452        3.1462005884       22.2799965903
  H        11.4371090310        3.2511547165       20.6404426660
  C        12.2767476544        1.7290637931       21.7412830622
  C         9.9874538029        7.6717644164       17.1639532741
  C        10.1549507582        5.5387236638       16.0964911258
  H         1.8169350112        7.0429966581       29.1417476947
  H         1.0351533697        5.8495880865       30.2598753582
  C         3.1130732302        5.5576461977       29.8805494584
  H         4.7174523922       -1.4884041101       32.4932418001
  C         4.5530652806       -0.0308264279       34.0603808881
  H         4.1904142201        1.8253458535       19.2986321193
  H         5.5909666204        1.0044716846       18.4115808746
  C         4.5254170440        2.7924677130       17.5380298298
  H        12.0400455497        0.8455802253       22.3303768742
  H        12.5468443473        1.1911422591       20.7865126561
  C        13.3979186792        2.5693508174       22.2708894935
  N         9.6282807576        8.5936105781       18.1410357489
  C        10.5185814554        8.3035580900       16.0002830589
  C        10.3830508015        6.1122539205       14.8976650770
  H         9.9988932911        4.4993766471       16.0725700496
  H         3.2168669597        5.7600569883       30.9603031320
  H         3.1055462717        4.5301189087       29.7705566781
  H         3.9140671736        5.9739346877       29.2801380013
  S         4.3228744903        1.4851952770       34.7405651521
  C         4.5400609577       -1.0975530962       35.1280043241
  H         4.5466244470        3.8544985647       17.8054273964
  H         5.0329094943        2.8232966466       16.5782619063
  C         3.0814504041        2.3319940399       17.1725183403
  H        13.1182372081        2.9139177777       23.2274820695
  H        13.5761221193        3.4045381070       21.6565783268
  C        14.6478587016        1.7998366437       22.3944672081
  S        10.2297613019       10.0608624157       17.6243743712
  N        10.6837944438        9.6864195284       16.0744479166
  C        10.7124486271        7.5465314596       14.8163150929
  H        10.3283589908        5.5249822754       13.9842676675
  C         4.1346942798        0.7335436320       36.3560128372
  N         4.2843648121       -0.5918049921       36.3168240882
  O         4.7342303253       -2.2709757182       34.8486458652
  H         2.7643079565        2.7531928866       16.2348062240
  H         2.3486809114        2.6686908383       17.9729268817
  C         2.9611678777        0.7799048379       16.9936594895
  H        14.5924457162        1.0099588347       23.2359477115
  H        14.7799310240        1.1520643463       21.4946418160
  C        15.7643194846        2.8043901435       22.6650022332
  C        11.0620369271        8.1832884648       13.5983450964
  S         3.8590720323        1.4938586835       37.9005229856
  C         4.3426757180       -1.4685859499       37.4776213591
  H         2.2821690658        0.6335162494       16.1486440991
  H         3.8605109569        0.3579752475       16.7158321760
  C         2.3389157925        0.0037843133       18.1135653610
  H        15.6099588718        3.4687089623       23.4766246670
  H        15.8532430426        3.3895112518       21.7257589789
  C        17.1944516824        2.1273367970       22.6571014026
  H        10.9863958651        9.2517326630       13.5540853416
  C        11.7158651951        7.7471252466       12.5115216970
  H         3.6400060801       -1.2545537220       38.3145806728
  H         3.9948093644       -2.4684416144       37.2324057809
  C         5.7208000507       -1.5072633620       38.0315345247
  H         1.2841729086        0.2461502343       18.2766946915
  H         2.9407106311        0.1535162807       19.0185435785
  C         2.2117049331       -1.4151519764       17.6812516639
  H        17.2251716550        1.1957949797       22.0601673133
  H        17.9596198522        2.8713635218       22.2122038430
  C        17.5883054017        1.6775704148       24.0323069727
  S        12.2936173418        6.1523186540       12.0770619582
  C        11.8958030621        8.7653184426       11.4110839635
  H         6.0290481294       -0.5036003849       38.2693964644
  H         5.7683475968       -2.1616889051       38.9038309191
  H         6.4460567127       -1.9274432542       37.3442634873
  H         2.7402433258       -2.0589098510       18.3760317036
  H         2.6287220293       -1.5707447872       16.6914522383
  H         1.1602304645       -1.6985207654       17.9336135298
  H        16.9946268124        0.8997928386       24.3851795115
  H        17.4089225132        2.4811970832       24.7029879441
  H        18.6415708286        1.3589704032       23.9680829943
  C        12.9171648232        6.8295694040       10.6016830316
  N        12.5486806861        8.1417602118       10.3592582728
  O        11.5056599661        9.9027604039       11.4720681978
  S        13.5386224647        5.8079234112        9.3092168324
  C        12.7887609299        8.7624454131        9.0771046265
  H        12.8419508342        9.8552604407        9.3460963397
  H        13.5380088801        8.3819649839        8.4671528594
  C        11.5076231295        8.6872075820        8.2286269905
  H        10.6358561372        9.3030247045        8.5488527860
  H        11.5735119194        9.0342573459        7.2232418515
  H        11.1045836260        7.6955197056        8.1749608403
  H         2.6368535561        3.7088091468       12.6470045718
  C         2.4856414748        2.6617643673       12.6263847799
  H         1.5372826116        2.5155611704       13.1813042034
  C         2.4240452547        2.1090464050       11.2369078516
  C         3.5596406848        1.8126064895       13.3000645600
  C         3.6145101367        2.5000936391       10.2801991978
  H         1.5901303662        2.7043277028       10.8295346506
  H         2.2604912943        1.0680974074       11.2097221358
  H         3.4351711149        1.9706078324       14.3232000687
  H         4.5644753753        2.1919340415       13.1701546876
  H         3.5702062056        0.7339560259       13.0406165228
  C         4.4881288983        1.2889051889        9.7841455511
  H         3.3068213848        3.0516289969        9.4404963658
  H         4.2201380812        3.0580157097       10.9154778481
  C         5.2976121270        1.5942196164        8.4768943155
  H         3.8535369635        0.4718468069        9.5660045238
  H         5.2623908214        1.0543007684       10.5032597796
  C         6.5150921555        2.5208232352        8.7145760748
  H         4.5525867637        2.0587929569        7.7910291039
  H         5.6635343878        0.7182497311        8.0173528847
  C         7.7689982596        1.8299826313        9.3210928792
  H         6.8029662120        2.9469057861        7.7751140268
  H         6.2930558216        3.4749672993        9.2727884082
  C         9.0602535641        2.6637817597        9.4955651925
  H         8.1151098351        1.0788906056        8.6269047918
  H         7.4736376640        1.2040993568       10.1902077834
  C         8.7494034920        4.0253174152       10.1419658874
  C         9.6127493138        3.3548525100        8.2052908651
  C        10.2427817197        1.9623508128       10.2686835268
  C         9.0150631213        5.1202949730        9.3832407248
  C         8.1905994686        4.4090498076       11.3832065775
  C         9.5422789375        4.7039035589        8.1485648714
  C        10.2035842365        2.7031527387        7.0774246784
  H         9.7955604625        1.5790366745       11.1818724604
  H        10.4188895277        1.1280904674        9.6421433337
  C        11.4913352842        2.8369170386       10.6080260531
  S         8.7153950885        6.6513022208       10.0969419845
  C         8.1305126488        5.7941453402       11.4776193346
  H         7.7986322627        3.6234043666       12.0599416659
  C         9.9749848414        5.2784351720        7.0066552537
  H        10.0831566217        1.6637077657        7.0736658615
  C        10.5795453123        3.3188059581        5.9173547660
  H        11.3327309797        3.9393460282       10.7306221791
  H        12.0481388456        2.7627792284        9.6542547926
  C        12.4478963946        2.3131886712       11.6530316337
  C         7.6088656870        6.5188675721       12.6699032747
  C        10.5181774083        4.6846594314        5.8445972382
  H         9.9503089203        6.3887646669        7.0837274791
  C        10.9796043192        2.9081288560        4.6603126737
  H        13.1725800915        3.0585279343       11.6995673348
  H        12.9655274232        1.3913697713       11.2339638195
  C        11.9038307592        2.1700235740       13.0520167840
  C         7.7887679900        7.9069731306       12.9458983776
  C         7.0054618832        5.7137540589       13.7284340127
  C        10.9104510946        5.3978433498        4.5800720614
  C        11.2013918057        4.0453108663        3.8680017555
  S        11.1389957161        1.3633172484        3.8837237181
  H        11.3590948850        3.0329648821       13.3623981217
  H        11.2038527541        1.3546411056       13.1493055139
  C        12.9120998078        1.8826342259       14.2114982421
  N         8.3364915799        8.8129167975       12.0253003162
  C         7.4491881446        8.4902316230       14.1630665186
  C         6.8261710388        6.3327638355       15.0152590713
  H         6.7427729340        4.6497301741       13.6229614517
  C        12.1588466829        6.3238031266        4.7079698171
  C         9.7384048251        6.1254084287        3.9399527402
  C        11.4537985934        3.5899660386        2.5275137101
  C        11.4396622105        2.2130457619        2.4047478165
  H        13.7434079084        2.5795491529       14.2275959060
  H        13.3875474584        0.9058521268       14.1526697435
  C        12.2276298439        2.1647029542       15.6002680036
  S         8.2811187511       10.3474524842       12.6698409647
  N         7.7439914596        9.8540991596       14.1429990542
  C         7.0025564900        7.7638052118       15.3298642433
  H         6.2858685462        5.7512578002       15.7830214931
  H        11.8334594421        7.2478805785        5.0878190176
  H        12.6768956660        6.5926961637        3.7678620371
  C        13.3049391826        5.6632130212        5.5077793901
  H         9.4854259828        6.9174632148        4.6221938287
  H         9.9966629365        6.6816866165        3.0162584374
  C         8.4337946637        5.3317364878        3.7424685895
  H        11.6538950996        4.3022235026        1.7057687840
  C        11.6488520968        1.4314803571        1.1611639286
  H        11.6375748802        3.0588400143       15.6337621940
  H        11.5039681123        1.3694267441       15.8028127420
  C        13.3720857338        2.3254706828       16.6743354787
  C         6.6712799904        8.4184312609       16.5969328526
  H        12.9040374521        5.3875565037        6.5150350654
  H        13.5437011379        4.7807843523        4.9693086588
  C        14.6514741027        6.4088436873        5.5597462665
  H         7.9972610282        4.9737186145        4.6884427976
  H         8.6569859295        4.4735888707        3.1081629267
  C         7.3416812652        6.1200939077        2.9447549144
  C        11.6756159399       -0.0092977497        1.0123916518
  C        12.0400561524        2.1961778073       -0.0846685709
  H        13.9761523595        3.1687997366       16.4375450636
  H        14.0938655239        1.4928245198       16.6181136935
  C        12.9085110716        2.6447781492       18.0691101258
  H         6.6369114308        9.5083300744       16.5414744630
  C         6.4519280142        8.0170383710       17.8989648234
  H        14.5247051940        7.2189998538        6.2320458064
  H        14.9301044871        6.7527556080        4.5515102696
  C        15.6468551190        5.4486447251        6.0875302503
  H         6.8072317144        6.7910577319        3.6414518240
  H         7.7484555966        6.7583886259        2.2334675167
  C         6.3344703869        5.1102614240        2.3311703829
  N        11.2905625899       -0.9889894287        1.9556361919
  C        12.0387367838       -0.6099711309       -0.2030308343
  C        12.4064951465        1.5635718051       -1.2887637343
  H        11.9394028996        3.2915500259       -0.1247452498
  H        12.0482439430        2.0933712251       18.4769170719
  H        12.6404917545        3.6351290540       18.0196427719
  H        13.7031068037        2.5679182091       18.7896940156
  S         6.3130519286        6.3806250804       18.4111779928
  C         6.2261626403        9.0670854226       18.8474212964
  H        15.2689347839        4.9267846792        6.9410880993
  H        15.9672163671        4.7686591300        5.3081387080
  C        16.7643328830        6.2814281819        6.6215403672
  H         5.6527039262        4.7469497205        3.0782865594
  H         6.7722124071        4.1835979110        1.9549215428
  C         5.6012939030        5.8190926253        1.2223526489
  S        11.6134755886       -2.4868168795        1.3813761700
  N        12.0281140797       -1.9755761404       -0.1177867745
  C        12.3868513989        0.0957979319       -1.3774958376
  H        12.5857717804        2.2444642077       -2.1444005061
  C         5.9936934797        7.1383155328       20.0135910945
  N         6.0088778085        8.4961232667       20.0266727447
  O         6.0985958421       10.2505426857       18.5432771245
  H        17.0902943360        6.8216428328        5.7343246847
  H        16.3035084774        6.9870175200        7.3248522407
  C        17.9111741655        5.4976714834        7.2190330551
  H         6.2463313090        6.4546350086        0.5742847709
  H         5.1208004570        5.1541425994        0.4978922864
  C         4.5959672638        6.8103076860        1.8520254690
  C        12.6069469135       -0.6249990012       -2.5683736563
  S         5.5009156778        6.3378483069       21.4676542193
  C         5.8822884279        9.2773867502       21.2360393070
  H        17.7023671964        5.3624638391        8.2430474179
  H        17.8073995304        4.5448255298        6.7154225698
  C        19.3633580720        6.0899512006        7.1178102008
  H         4.4544416938        6.7423368276        2.9502182885
  H         3.6359618855        6.5279497697        1.5818100989
  C         4.7200986342        8.1830467731        1.2911778513
  H        12.3847725956       -1.7120658837       -2.4214448886
  C        12.9332543368       -0.3603749328       -3.8486773861
  H         5.0354903596        8.9525687684       21.7796913948
  H         5.7703760201       10.3317880955       20.9391938907
  C         7.1367395466        9.1381350105       22.0504590329
  H        20.0269907196        5.7432404023        7.9123049072
  H        19.2912724609        7.2157183939        7.1458630908
  C        20.1518464163        5.7515474736        5.8754995807
  H         5.8215084719        8.4340980881        1.4842654666
  H         4.7711767228        8.2010400377        0.1357745539
  C         3.8155372504        9.3231362149        1.9134560042
  S        13.3134836548        1.1880084462       -4.4663441925
  C        12.9963454968       -1.4090281413       -4.8950479533
  H         7.9981119225        9.0474881326       21.4570297670
  H         7.0185865075        8.2404229645       22.6428831623
  H         7.3359541264       10.0220475489       22.6572285007
  H        19.5242812454        5.7772259493        4.9844819142
  H        20.9122616362        6.4746696777        5.7493633640
  H        20.5291819016        4.7382963412        6.0347309456
  H         3.2546477531        8.9273095158        2.6664149459
  H         4.3838298294       10.0611938220        2.5083343522
  H         3.1710765504        9.8865282535        1.2438784586
  C        13.4553396858        0.4291488002       -6.0631710457
  N        13.3902522962       -0.9109230545       -6.0673927492
  O        12.8645275993       -2.5604465924       -4.7136973450
  S        14.3014228743        1.1776713010       -7.3906888081
  C        13.4587502784       -1.7409780431       -7.2711553712
  H        13.5277014107       -2.7545191935       -7.0537971289
  H        14.2891841374       -1.5045222961       -7.8647240497
  C        12.2377544156       -1.5600799891       -8.1881844715
  H        11.8071081399       -2.5176357057       -8.4930979995
  H        12.5825019077       -1.1213293472       -9.1172924349
  H        11.4554231213       -0.8749536637       -7.8988276494
