352
 i =    22400, time =    11200.000, E =        95.9845972117
  H         9.0599210092        5.3311107132       31.5424932456
  C         9.6323544947        6.1106486623       32.0216834245
  H         8.8261963690        6.7871354649       32.3350217496
  C        10.5783301330        6.8066957672       31.0171555324
  C        10.3288618511        5.7112122058       33.3100428494
  C        11.3090536672        5.7772207475       30.1571296935
  H        10.0436682674        7.4209690080       30.2936524514
  H        11.4400474937        7.2560531515       31.4477587377
  H        10.8904304216        4.7682868463       33.0803339334
  H        11.0455289202        6.4597871474       33.6517658980
  H         9.6743904409        5.3507679155       34.0821252563
  C        10.3556973021        5.0217934469       29.1935798930
  H        11.8651960558        5.0869508774       30.7889336333
  H        12.1094169662        6.2752080143       29.6383675599
  C        10.8835159376        5.3016619735       27.7828922430
  H        10.4367776888        3.9998102106       29.3729476975
  H         9.3804417660        5.1710652712       29.3136287673
  C         9.9522535164        4.8546188156       26.6697923660
  H        11.9302507443        4.9337949426       27.7297166795
  H        11.0127821738        6.3479758262       27.6401018230
  C         8.6680196085        5.6921629546       26.4262843568
  H        10.4777400823        4.8274837504       25.7098755777
  H         9.7795780635        3.7589337445       26.8159988046
  C         7.5435349333        4.9858271194       25.7134927466
  H         8.3554014671        6.1143417234       27.3849296879
  H         8.9234881977        6.5507083347       25.8555799307
  C         7.0819960932        3.6087401748       26.3743655955
  C         7.9913303763        4.2460920232       24.4205214362
  C         6.2886775119        5.9095873206       25.5604821628
  C         7.3549463298        2.5008908359       25.5161350097
  C         6.4576282360        3.2594888423       27.5577773023
  C         7.8847168414        2.9121261670       24.2960336741
  C         8.4300244205        4.8637017834       23.2125668458
  H         6.6415080637        6.7160787638       24.8626169771
  H         6.0483622491        6.3539636968       26.5127288518
  C         5.0283131196        5.2446069420       24.8646195409
  S         6.9344024716        1.0458914070       26.3471728945
  C         6.3848624116        1.9047351302       27.7477871264
  H         6.2895277731        4.0131940461       28.3242176214
  C         8.2525692344        2.3462645767       23.1218779680
  H         8.5525863641        5.9342252585       23.2818349801
  C         8.7701705112        4.3087464905       22.0385858632
  H         5.3855141964        4.9014861203       23.9224152502
  H         4.7270682089        4.4761535436       25.4972974265
  C         4.0205780123        6.2751432780       24.6109758889
  C         5.9354409296        1.2378068302       28.9718042049
  C         8.6179157494        2.9757594626       21.9219633080
  H         8.1079504199        1.2878148034       23.1537018261
  C         9.0847894971        4.7059202973       20.8041373639
  H         3.5089288442        5.7823665452       23.7736786917
  H         4.5027126795        7.2023559910       24.1739227472
  C         3.2233051831        6.7295822913       25.8237634096
  C         5.9130405993       -0.1635553647       29.1408723761
  C         5.4956565419        2.1079512011       30.1466220172
  C         8.9361100884        2.2852201377       20.6498106312
  C         9.2211485136        3.6181068003       19.9643228421
  S         9.6050257341        6.1274288037       20.0564307148
  H         2.5270262157        7.5542563539       25.6016251944
  H         3.9709671682        7.0702879637       26.5686948605
  C         2.3830077155        5.6395976282       26.5177906176
  N         6.2933937400       -1.1494043881       28.2046276122
  C         5.6394247760       -0.6686506442       30.4311015250
  C         5.1329561985        1.5097817096       31.3605155322
  H         5.4925307914        3.1614552542       30.0173848777
  C         7.6139198559        1.6311656099       20.1582911232
  C        10.1662427107        1.3919518329       20.6860398696
  C         9.5347038588        3.9661283099       18.6451314226
  C         9.7121021310        5.3039810815       18.5606486203
  H         1.7218717483        5.2662545647       25.6906859270
  H         2.9311648716        4.7424696408       26.8650658964
  C         1.6254071406        6.3043411034       27.7456550989
  S         6.2625434928       -2.5588128305       28.9760518828
  N         5.7728912962       -2.0903098862       30.4189924946
  C         5.2405329272        0.0487050409       31.5667236093
  H         4.8342858798        2.1776018380       32.1949981077
  H         7.4285110792        0.8249930084       20.8023394868
  H         7.8119673792        1.0872716012       19.3081195467
  C         6.4600489850        2.6178893675       19.7313038102
  H        10.2943112717        0.8642018100       19.7231090566
  H        10.0026867991        0.7277306878       21.5384466560
  C        11.4102077364        2.2051002999       21.0589013886
  H         9.6897311545        3.2260587773       17.8394005264
  C        10.1506849306        5.9856399962       17.2736678134
  H         0.5918550343        6.5201563152       27.4521414789
  H         2.0930450643        7.2211902200       27.9308141405
  C         1.7551486921        5.4192811466       29.0001422431
  C         4.9627212988       -0.6690891730       32.7215394114
  H         6.7937664232        3.3869660693       18.9907729625
  H         6.0341528787        3.0582511256       20.6086270038
  C         5.3233701897        1.7383877182       19.0864126527
  H        11.1356345725        3.0665784451       21.7489925706
  H        11.7819407076        2.8219733223       20.1924456502
  C        12.3958770890        1.2122145287       21.6661138154
  C        10.2329442028        7.4112462374       17.1272176983
  C        10.2173335023        5.2181486396       15.9917508152
  H         1.6640657493        4.3586665322       28.7733519949
  H         2.7982746732        5.4669247224       29.2843123953
  C         0.7902599227        5.7506789209       30.1071837489
  H         4.8974639823       -1.7534684160       32.6270523912
  C         4.6473849602       -0.1572880338       33.9963514411
  H         4.7843567663        1.1474727548       19.8427282563
  H         5.7676912743        1.0662272393       18.3657084218
  C         4.2245334981        2.5228130062       18.3658198017
  H        12.0656215429        0.9550704113       22.6862871794
  H        12.4415689620        0.2589584125       21.1141283437
  C        13.8449813560        1.7948852840       21.8035445987
  N        10.0125939412        8.3090725420       18.1875119101
  C        10.5018153016        8.0393970633       15.8843157265
  C        10.5177350314        5.8816152578       14.8248221340
  H         9.9728953803        4.2185250663       15.8856843413
  H        -0.1531480803        5.3657917109       29.7778877335
  H         0.9973711713        5.2739082088       31.0437520978
  H         0.8532318012        6.8359324514       30.1517125038
  S         4.4300442174        1.4576394510       34.4841855613
  C         4.3271741117       -1.1527649264       35.1081952689
  H         4.1293722465        3.3661906431       18.9882848049
  H         4.6493293675        2.8494428119       17.4641541740
  C         2.8069463592        1.9714932427       18.2090817601
  H        14.0567014183        2.5345057152       20.9947817614
  H        14.5859285917        0.9011166762       21.6968213497
  C        14.1635527876        2.3876821367       23.1925170533
  S        10.2097961512        9.7914570347       17.6347948604
  N        10.5955008961        9.3696604464       16.0429524379
  C        10.7418972395        7.3652364507       14.6688654814
  H        10.5516913720        5.3907135047       13.9076058373
  C         4.1298471613        0.8029829189       36.1840743260
  N         4.1507602564       -0.5475200543       36.2699796728
  O         4.3621405504       -2.3924559429       34.9829947406
  H         2.3062424334        2.7064265110       17.5212992791
  H         2.3296196334        2.0897178788       19.1676656096
  C         2.7890856871        0.5657704865       17.5684612224
  H        13.2923346597        2.9287057775       23.5658246874
  H        14.3464689873        1.5416679208       23.9301860841
  C        15.4217036906        3.3275925754       23.3550472177
  C        11.0985092047        8.1631544346       13.5359003478
  S         3.8177034189        1.7183044093       37.5550789539
  C         4.1416350379       -1.2369283586       37.5221524067
  H         2.1310369558        0.6139459980       16.6723333796
  H         3.7652796607        0.2301728508       17.2750037600
  C         2.1914154729       -0.3789614969       18.5530296381
  H        15.3505686754        3.9180769144       24.2720386079
  H        15.4818251442        4.0971457438       22.6571486780
  C        16.6976651480        2.6072319398       23.4071826014
  H        10.8822001576        9.2115051965       13.5295953408
  C        11.7313267755        7.7408322043       12.3999497901
  H         3.4271475900       -0.8435158541       38.2542518056
  H         3.6810780661       -2.1453051346       37.4146151597
  C         5.5286766960       -1.1290166608       38.1670961270
  H         1.2533628552       -0.0312374647       18.9272538467
  H         2.8436088265       -0.5164447666       19.4228175960
  C         1.8716246343       -1.7078624196       17.9288138869
  H        17.4971628528        3.1361753462       23.9577080403
  H        16.5384896187        1.5857735262       23.8158667041
  C        17.2980799870        2.3277861010       21.9770750687
  S        12.3556327669        6.2401189284       11.9508412155
  C        11.7862652334        8.7930593128       11.3502076406
  H         5.5629136622       -0.4464507399       38.9895697919
  H         5.8693610015       -2.0823272317       38.5601538102
  H         6.3215304225       -0.9134897465       37.4638215299
  H         1.2224489169       -2.2234759941       18.5985265010
  H         2.8558679679       -2.0997383279       17.5961496233
  H         1.2737228843       -1.5050818790       17.0495879082
  H        18.3841553165        2.1963271020       22.0453838145
  H        17.0673069563        3.1138159169       21.2228576967
  H        16.9397445264        1.4081021216       21.6244907754
  C        12.8679300348        6.9915150514       10.4208389827
  N        12.5193477574        8.2999675156       10.3186647501
  O        11.2059962940        9.8572907536       11.4000853673
  S        13.3473868880        6.0387155004        9.0144972486
  C        12.7390912012        9.1606883740        9.1865712950
  H        13.0005073464       10.1579459144        9.5034813206
  H        13.5481620981        8.7973331463        8.5942532300
  C        11.4887885936        9.1795200768        8.2508209902
  H        11.3154403129        8.1616843981        7.9506593270
  H        10.5085725403        9.4192651366        8.6516605049
  H        11.7819615983        9.7140173420        7.3434989373
  H         4.3353662215        0.9599870230       12.8089628435
  C         4.0670367844        2.0335938080       13.0252381691
  H         5.0512620521        2.4638552525       13.2665967343
  C         3.2855288622        2.6654728006       11.8521458895
  C         3.2204675839        2.0448054389       14.3766937944
  C         4.2099015042        2.9678943470       10.7252063605
  H         2.8486628837        3.5623467156       12.3221299407
  H         2.4538631521        2.0410718548       11.5218657253
  H         2.4798160011        1.2966563938       14.3828910230
  H         2.6442161555        3.0275346289       14.4597437125
  H         3.9020726582        1.9039947433       15.2582200945
  C         4.8185261084        1.6729625898       10.1139326556
  H         3.6482708238        3.4791837930        9.9481227836
  H         5.0026802444        3.7069366913       10.9825498726
  C         5.4814481571        1.8178267281        8.6831987171
  H         4.1307365880        0.8996701210        9.8063391140
  H         5.5285557596        1.1940236407       10.7666964973
  C         6.7255908419        2.6926452756        8.6468567683
  H         4.7104869633        1.9993194599        7.9767406326
  H         5.7190970791        0.7841258223        8.4556978028
  C         7.9960959797        2.0524397894        9.0085564822
  H         6.8282803619        3.0098544101        7.6019559997
  H         6.4811485667        3.6216140361        9.0996487043
  C         9.1620833138        2.9612027191        9.3597428836
  H         8.2353044685        1.3940786565        8.1939400132
  H         7.8700984816        1.3933972728        9.7906151657
  C         8.8502669511        4.2557804943       10.0636482629
  C         9.7315819052        3.6589888184        8.1823324831
  C        10.3062941168        2.1798298615       10.1494870636
  C         9.2051348303        5.4101430647        9.3598871184
  C         8.3434700631        4.6459676909       11.2695552909
  C         9.6901338887        5.0086602619        8.1089728572
  C        10.1286331102        3.0522469780        7.0316006230
  H         9.8340489999        1.8159245991       11.0703880474
  H        10.5904516923        1.2427210993        9.6591427889
  C        11.6509576864        2.9466965176       10.3502774313
  S         8.9670209021        6.8944470246       10.1433689056
  C         8.3850191786        6.0040228359       11.4999547838
  H         7.9844861417        3.9072551638       11.9578576242
  C        10.0651335672        5.6431348801        6.9936194854
  H        10.1532673174        1.9805272674        7.0690577557
  C        10.4940399321        3.6646494296        5.8880278889
  H        11.4417233664        3.9571314450       10.6677776465
  H        12.2209880513        3.0302695969        9.4184528926
  C        12.6615523538        2.2166147780       11.2605482607
  C         7.9660984813        6.6333849169       12.7838582381
  C        10.4738196616        5.0209181263        5.8183623417
  H         9.9160871482        6.7255794436        6.9801714022
  C        10.7931536521        3.2509802552        4.6239425996
  H        13.6527429832        2.7071550275       11.3642648831
  H        12.8169831925        1.2166383198       10.8359943463
  C        12.1589912951        2.0332346177       12.6883866145
  C         7.9723945570        8.0021516213       13.0729838521
  C         7.3810891059        5.7757132520       13.9124729455
  C        10.8254719356        5.6903713702        4.4333580224
  C        10.8643896503        4.2968123609        3.7397778080
  S        10.9971434278        1.7639877720        3.9195266401
  H        11.4491886559        2.8574603547       12.9970366313
  H        11.4708331398        1.1931996124       12.7398063845
  C        13.2587719561        1.9631299945       13.7457842436
  N         8.3830297680        9.0001111179       12.2044934350
  C         7.5967993690        8.5662774629       14.3174871580
  C         7.0342690349        6.2903768626       15.1143169046
  H         7.3644617177        4.7406426686       13.7771603751
  C        12.1370576873        6.4247787652        4.4780851900
  C         9.6525656378        6.4742121616        3.8691895795
  C        11.1184949792        3.8985275751        2.4079845429
  C        11.1965342367        2.5440204085        2.3691067361
  H        13.8005687995        2.9065083585       13.8512772075
  H        14.0626022098        1.3385442656       13.4575526900
  C        12.6576089355        1.5518739162       15.0906412968
  S         8.2560999500       10.5069138461       12.8984187235
  N         7.7717891337       10.0058892667       14.3824381806
  C         7.2426051960        7.7624551047       15.4479596349
  H         6.6213794498        5.6206328488       15.8673788457
  H        12.0441288714        7.2756529910        5.1320130308
  H        12.3974695014        6.8486667641        3.4951010825
  C        13.3605349092        5.6563303104        5.0900331248
  H         9.6611143823        7.2839329383        4.5636842008
  H         9.9187615741        6.8230027643        2.8627943981
  C         8.2864911074        5.8084584253        3.8074179084
  H        11.1610844506        4.5976981242        1.5601880393
  C        11.5080051652        1.6437801132        1.1522258621
  H        11.5769088505        1.5528423148       15.0259682342
  H        13.1126486327        0.6141399960       15.3606549707
  C        12.9162508762        2.5183472014       16.1931364289
  C         6.9438370909        8.4113229792       16.6916684412
  H        13.3688393134        5.2388966586        6.0908983308
  H        13.4426276668        4.6860766197        4.5048291824
  C        14.6502503910        6.4653445337        5.0770704665
  H         8.0164161054        5.1411851063        4.7093373818
  H         8.3188166193        5.0731591522        3.0199661072
  C         7.2382573624        6.8257907501        3.4042756764
  C        11.5490335933        0.2557824671        1.0810855154
  C        11.8657748306        2.4267598169       -0.0481113104
  H        12.2878614968        3.3842417356       16.2333435716
  H        13.8672224683        2.9903598075       16.0905367551
  C        12.7386619452        1.8796396867       17.5852685002
  H         7.0168256453        9.5162612839       16.6720015149
  C         6.6715488737        7.9041157575       17.9576845963
  H        14.5773064971        7.1886573339        5.9181374077
  H        14.7882008514        6.9488810425        4.0940760071
  C        15.8393189834        5.5612850359        5.2907580549
  H         7.0428539006        7.6541827935        4.0773757974
  H         7.4924201083        7.3070807797        2.4360301927
  C         5.9346443149        6.2040817720        3.0791578536
  N        11.4456949846       -0.6117047557        2.1760484863
  C        11.9663558741       -0.3945751308       -0.0471105983
  C        12.0689361609        1.7291352177       -1.2665767300
  H        11.7902381114        3.4693842155       -0.0691953628
  H        11.8301330622        1.4428426881       17.7819097176
  H        12.7519348061        2.6486265580       18.3115373439
  H        13.4672366121        1.1628096866       17.7821791251
  S         6.4280260649        6.2192798603       18.2237501557
  C         6.5610806840        8.8769266439       19.0619838638
  H        15.7819436049        4.4967302698        4.8785958326
  H        16.6876597636        6.0593474153        4.7627174497
  C        16.1165169662        5.4402943064        6.8280389979
  H         5.2854565995        6.2480248664        3.9566076444
  H         5.9276049678        5.1660415876        2.7367942817
  C         5.2133529562        6.9830518191        1.9848023521
  S        11.6423816205       -2.1225169041        1.6071006136
  N        12.0590431520       -1.7435726465        0.0893601134
  C        12.2037846603        0.2669171438       -1.3089690173
  H        12.1582682185        2.2742724043       -2.1969205274
  C         6.2174287385        6.7615341317       20.0003287701
  N         6.2188524289        8.1216991300       20.1624997928
  O         6.4654298568       10.1225058573       18.9451344776
  H        15.8898040284        6.4081784075        7.3317770998
  H        15.4242230420        4.5626292912        7.0890665663
  C        17.5786879836        4.9098318461        7.1519302624
  H         5.6674957569        6.7895044167        1.0172990115
  H         4.1942444541        6.6694069939        1.9784931650
  C         5.0488975225        8.5309458865        2.1258626792
  C        12.5237154654       -0.5433159780       -2.4607273478
  S         5.7828730563        5.6990211224       21.2997278998
  C         6.0786549792        8.6853842664       21.5473589900
  H        17.5314346259        4.4314119296        8.1077219246
  H        17.8733461995        4.1598232531        6.4959668982
  C        18.5930598986        6.0347544496        7.2996052490
  H         6.0422592694        8.9194996143        2.0123408959
  H         4.7459561219        8.8073434489        3.0913993499
  C         4.1161204586        9.0416392885        1.0246848218
  H        12.3385531151       -1.5316435719       -2.3434240909
  C        13.0123372804       -0.2490306574       -3.7439555394
  H         5.2759056297        8.1013474019       22.0828008772
  H         5.5636266234        9.6489545140       21.6711356435
  C         7.4611754576        8.7078651836       22.2368190839
  H        19.0795725865        6.0060812246        8.2168901155
  H        18.1189604085        6.9826388815        7.0829263456
  C        19.6957095016        5.8151072403        6.1823849901
  H         4.7132350419        9.0649756264        0.0889492962
  H         3.3930017705        8.2587135442        0.8491506870
  C         3.5566041361       10.4573752694        1.1851950419
  S        13.2875569345        1.3499973723       -4.3440387359
  C        13.1334567025       -1.3464818720       -4.7541688588
  H         8.3029420441        8.3047691978       21.6806335000
  H         7.4299430276        8.2120890759       23.1560151434
  H         7.7028053595        9.7851616858       22.4562423747
  H        20.6150083742        6.3295890618        6.5174942306
  H        19.9689870853        4.7170158919        5.8601931498
  H        19.3170329608        6.2896962887        5.2624830317
  H         4.0253620579       11.2271572195        0.5843324880
  H         2.4918338372       10.4118756858        0.9918883950
  H         3.5246802181       10.8275164289        2.2483841670
  C        13.7918626894        0.5591972323       -5.8251334180
  N        13.7042855509       -0.7836818580       -5.8448378619
  O        12.9733115439       -2.5215989171       -4.5210278981
  S        14.3737751337        1.4845861999       -7.1633895802
  C        13.9350676989       -1.4676621695       -7.0985838854
  H        14.1690807031       -2.4833468549       -6.8085628436
  H        14.8640759372       -1.0599118643       -7.5468158647
  C        12.7658523307       -1.4534123808       -8.1183416111
  H        13.1233838080       -1.3843057088       -9.1220837926
  H        12.1206046017       -0.6351571049       -7.9287159434
  H        12.3122458384       -2.4760724625       -8.1231357060
