352
 i =    89400, time =    44700.000, E =        99.3907453229
  H        12.1917410168        6.7289769651       32.7410754891
  C        11.9108492304        5.7663293513       32.5384390443
  H        12.8240227328        5.1908001400       32.1737989789
  C        10.8016003390        5.7324108566       31.5432160597
  C        11.4334946923        5.2640894163       33.9681951948
  C        11.3143442305        5.9588213572       30.0876383126
  H        10.1997620739        4.8418199695       31.5519820514
  H        10.0198779154        6.5056136540       31.6334261338
  H        12.2503663916        4.9416173343       34.6666270784
  H        10.8030066329        6.0111755877       34.4717232036
  H        10.6764004042        4.4921238517       33.8655609113
  C        10.2467577379        6.0056299177       29.0877084102
  H        12.0239288198        5.1551989728       29.7940844979
  H        11.9258773562        6.8680043207       29.9401593975
  C        10.7320094705        5.7758971215       27.6598993883
  H         9.4472915525        5.3352660194       29.3048511329
  H         9.8982239307        7.0232960923       29.0911485770
  C         9.6296947231        5.0813371022       26.7498690205
  H        11.6193896500        5.0464098216       27.7237221430
  H        11.1404941529        6.6428701210       27.1377450042
  C         8.4490407929        5.9854890881       26.3838683416
  H        10.0572986937        4.6390283873       25.8487946448
  H         9.2665966322        4.2208798656       27.2554925352
  C         7.2829752749        5.2328222925       25.6240725806
  H         8.0088028639        6.3961716438       27.3131264439
  H         8.8660249562        6.8395024528       25.8280290549
  C         6.8728947781        3.9208161059       26.2714101643
  C         7.7291376827        4.5114542551       24.3906660346
  C         6.0071163599        6.1837983928       25.3491750907
  C         7.1974539427        2.7804668981       25.5413721352
  C         6.2896586940        3.5528748071       27.5575070828
  C         7.7023572815        3.1750213869       24.2953732616
  C         8.2348682019        5.1738815721       23.2383192728
  H         6.1989633795        6.8218420653       24.5827444438
  H         5.7713733879        6.8376402920       26.2046221801
  C         4.6636916883        5.4276978413       25.0879298930
  S         6.7740927406        1.3288665469       26.3490102342
  C         6.2866685881        2.1902660748       27.7668468048
  H         5.8719796652        4.3615352331       28.1647482682
  C         8.0405983100        2.5941633346       23.1333828713
  H         8.3648352580        6.2413793306       23.1734844463
  C         8.6773309925        4.5478201475       22.1583005536
  H         4.8069286624        4.8928529765       24.1769493566
  H         4.5468928518        4.6386571853       25.7431906065
  C         3.4907356749        6.3868014371       24.9758434868
  C         5.9101605110        1.5715341752       29.0211643292
  C         8.5698942833        3.2176566142       22.0295635432
  H         7.9959908058        1.5048793434       23.1534918492
  C         9.0630765720        4.9212207786       20.9111497419
  H         2.8594928030        5.8701327742       24.2027633282
  H         3.8196706830        7.2798851037       24.4581355394
  C         2.7841968918        6.6858337296       26.3101070287
  C         5.8500707636        0.1693867062       29.2599794796
  C         5.3076055821        2.4288359639       30.1453759606
  C         9.0148760887        2.5111513450       20.7924961816
  C         9.3641557698        3.8530190980       20.1084037513
  S         9.3417110147        6.4555415912       20.1215035715
  H         2.1219109316        7.5342586158       26.0655059917
  H         3.5011903468        7.0051755147       27.0267245557
  C         1.9240447114        5.5681699395       26.8992305288
  N         6.2432839481       -0.7410544123       28.3495310235
  C         5.5095002469       -0.3505921638       30.4781705590
  C         4.8358633129        1.9311788159       31.3232853112
  H         5.1257443348        3.5260065660       29.9470216252
  C         7.8173746072        1.7659285452       20.0522344286
  C        10.3177537668        1.7749788259       20.9658642942
  C         9.6254538319        4.3035605824       18.7432950649
  C         9.6872037011        5.6620150471       18.6732902518
  H         1.0482145164        5.3735874471       26.2693590432
  H         2.4272288459        4.6213244753       26.9912361282
  C         1.2590749727        5.8434930079       28.2468132853
  S         6.2210221079       -2.2311561311       29.1200861669
  N         5.6287946479       -1.6875128808       30.5307521244
  C         5.0650861901        0.4296162537       31.5622279385
  H         4.5427918702        2.6023108894       32.1329199828
  H         7.4605435545        1.0036152186       20.7314141525
  H         8.1897349209        1.1566627609       19.1494890285
  C         6.6648362104        2.7259614739       19.7186644101
  H        10.5788911198        1.2189210379       19.9815599760
  H        10.1369721790        0.9242813464       21.6671542273
  C        11.5593851032        2.5309364318       21.4368187101
  H         9.7962061854        3.4962621732       17.9923649907
  C         9.9709374725        6.5362215507       17.4511194168
  H         0.4720292200        5.0819856324       28.4282528727
  H         0.8687626994        6.8459737799       28.2665920468
  C         2.3295548395        5.7018946228       29.3484333407
  C         4.8900695422       -0.1896206898       32.8074029283
  H         6.8776407967        3.6570792769       19.2003076181
  H         6.1508892479        3.0698979760       20.6391793155
  C         5.6332836994        2.1050051675       18.8033136069
  H        11.2225252679        3.0844102283       22.3672049246
  H        11.7635174044        3.3021100792       20.6448979659
  C        12.7225354029        1.5502710823       21.6833965152
  C        10.1788758503        7.9020344371       17.3480241248
  C        10.2324566411        5.7309946912       16.2138623362
  H         2.6054123776        4.6399193995       29.4590607750
  H         3.1943238313        6.3424236366       29.1827158386
  C         1.7058695323        6.1331639684       30.6448556933
  H         4.9259166120       -1.2944597941       32.8232904958
  C         4.6283654236        0.2900339493       34.0732327158
  H         6.1912863621        1.3726030469       18.2531326742
  H         5.3267864961        2.7934497987       18.0373839520
  C         4.3880535201        1.3734013924       19.4641360699
  H        12.5050333723        0.9041860798       22.5799680342
  H        12.8103380269        0.9294058597       20.7712459745
  C        14.0315856726        2.3056312904       21.9801958631
  N         9.9175872439        8.7992508096       18.4039702710
  C        10.5121642828        8.5141031123       16.1927776272
  C        10.4845005555        6.3436152933       15.0225383163
  H        10.1287839368        4.6567089520       16.2805445176
  H         1.2006726213        5.2738474902       31.0893535671
  H         2.5305630561        6.3241456143       31.3458016922
  H         0.9682745508        6.9159472352       30.6794989692
  S         4.4939761637        1.9431939398       34.5566635623
  C         4.5191924903       -0.7377172157       35.1558345472
  H         4.4948747039        0.9633136054       20.5217492916
  H         3.4847051619        1.9654246000       19.5538796349
  C         4.1328509601        0.0681197314       18.6761667119
  H        13.7742145576        3.2099879692       22.4568572084
  H        14.4733280773        2.4697900502       21.0521427766
  C        14.9461769053        1.5509488065       23.0170932282
  S        10.2025556166       10.2893208460       17.9368842332
  N        10.6844899882        9.8857476268       16.4807056660
  C        10.7917279234        7.8574453233       14.9755991771
  H        10.5907789854        5.8477186108       14.0458465963
  C         4.2954281298        1.2817048780       36.1122097773
  N         4.1886439560       -0.0886565138       36.2326337043
  O         4.4298924403       -1.9378836452       34.9952809711
  H         4.9116095122       -0.6397719437       18.8740515970
  H         4.2644549517        0.3233068125       17.6075635370
  C         2.8258772990       -0.7428954723       18.9285917942
  H        14.4746907857        1.0671371464       23.8543213510
  H        15.3772291196        0.7428790569       22.4372575289
  C        16.0908745814        2.2899929182       23.6502108369
  C        11.0794003674        8.6587050436       13.8621552162
  S         3.7862490081        2.1365214129       37.5607681162
  C         4.0394445298       -0.8139728035       37.4949615189
  H         2.7682931280       -1.1536195143       19.9824742180
  H         1.9681193720       -0.0696160920       18.9276778898
  C         2.6177086958       -1.9136488679       17.9052711436
  H        16.7514019517        1.5636123246       24.2131365830
  H        15.7716742595        3.0763482231       24.2597689378
  C        17.0088188990        2.8510882604       22.5565424035
  H        10.9774581069        9.7211911707       14.0076950998
  C        11.6369326501        8.3344089629       12.6389697547
  H         3.4847890394       -0.2292238744       38.1014478886
  H         3.5543486517       -1.7579184882       37.3907427313
  C         5.3753104012       -0.9265756956       38.2701068978
  H         1.8292712646       -2.5896325985       18.2311657929
  H         3.5831628064       -2.4511174518       17.7355767377
  C         2.3279083574       -1.5299330653       16.4310187280
  H        16.7669556348        2.6371044471       21.4762943759
  H        16.9774141667        3.9217540247       22.6002767599
  C        18.4217916626        2.4318411171       22.8347507574
  S        12.2300859370        6.6800672753       12.1947676328
  C        11.7748684147        9.4427059387       11.6391785909
  H         6.1385469419       -0.2561452389       37.9768916197
  H         5.1273525960       -0.6371971633       39.3350586458
  H         5.9154392006       -1.9168533301       38.2381047325
  H         2.7431005930       -2.2090740902       15.7657030271
  H         2.8133739330       -0.5854428290       16.2462989746
  H         1.3499661121       -1.3365102454       16.1749131093
  H        18.7856740692        2.7542042855       23.8225791703
  H        19.1145534459        2.8950750307       22.1187072314
  H        18.4950827926        1.3489878013       22.8566957626
  C        12.6323898609        7.5361665199       10.6801649755
  N        12.3869071175        8.8822162940       10.6276973689
  O        11.3771713139       10.5679761464       11.7448248235
  S        13.1227473382        6.7450416712        9.1663929032
  C        12.4509548887        9.6084352322        9.4019457878
  H        12.6326088314       10.6351047660        9.7058911831
  H        13.1699858081        9.2773926386        8.6755716295
  C        11.1454327237        9.5665132320        8.6955074687
  H        11.2071125213       10.1523965263        7.7846654633
  H        10.8326977096        8.5883931938        8.3115027061
  H        10.3333515711        9.9033025863        9.3154030236
  H         5.0016917996        1.5431222949       13.0805709086
  C         4.3840555614        2.4657916439       13.1158052594
  H         5.0026214752        3.3797269985       13.3275312361
  C         3.6546533061        2.6237538359       11.7719930121
  C         3.3575600159        2.1755630668       14.2468488626
  C         4.6194174663        2.8201053908       10.6286861567
  H         2.9807167745        3.4264585792       11.8736506269
  H         3.0208923945        1.7298987256       11.6686568848
  H         3.2421731699        1.0738648473       14.4257305136
  H         2.3914836411        2.6849895355       14.0971753525
  H         3.8039089289        2.5291124372       15.1736216775
  C         5.2188626751        1.5847841470       10.1175239346
  H         4.1367518430        3.1875813773        9.7497734503
  H         5.4532254279        3.5233838023       10.8889332263
  C         6.0682174308        1.7827270546        8.7921244125
  H         4.3784746310        1.0003920589        9.9033471708
  H         5.8454050311        1.1502391340       10.8585218005
  C         7.3224259963        2.5173987772        8.9060643725
  H         5.4575680879        2.2561936618        7.9752146953
  H         6.5086599646        0.8137107446        8.4592889474
  C         8.5388980369        1.8249288389        9.6553006063
  H         7.5042436162        2.9144082716        7.9654135930
  H         7.0109737426        3.3114405939        9.5441485394
  C         9.6693869212        2.8211680923        9.7989178622
  H         8.7576611127        0.9541860752        9.0592100149
  H         8.2723130214        1.4232436457       10.6450644592
  C         9.1832030606        4.1228355738       10.4999255212
  C         9.9886717482        3.4856554761        8.5067120864
  C        10.8690001660        2.1643994011       10.5716984483
  C         9.2970459146        5.2132137039        9.6723092489
  C         8.6456717044        4.4505890403       11.7815753554
  C         9.7558834133        4.8131793590        8.3837196115
  C        10.4881235542        2.8554860661        7.3173768856
  H        10.6105553363        1.7804759936       11.5837232622
  H        11.2498971289        1.3375544735        9.9238542380
  C        12.0825087191        3.1054276489       10.8177312221
  S         8.8303606841        6.6769969506       10.4419560965
  C         8.3583440873        5.8227960397       11.8319275459
  H         8.4288258595        3.7292277502       12.5211613494
  C        10.1034674035        5.4193798714        7.1936704971
  H        10.7122181467        1.7743493672        7.3733917549
  C        10.7076616947        3.4534975485        6.1449463106
  H        11.7128044007        3.9329198753       11.4560938113
  H        12.4445583633        3.5384377156        9.8598987706
  C        13.3187601951        2.3547414714       11.3969755002
  C         7.7819368110        6.5167165222       13.0154808014
  C        10.6190024743        4.8185779254        5.9941787317
  H         9.9142729996        6.4686697052        7.1765205857
  C        11.0910925170        3.0506146112        4.8811331869
  H        14.0693351337        3.1419425961       11.2474112309
  H        13.4081677428        1.5427300205       10.6751063375
  C        13.2986984232        1.8487207464       12.8239732627
  C         7.7234503365        7.8774366839       13.1242181071
  C         7.2659861358        5.7021738126       14.1278890284
  C        11.0450887856        5.4702688387        4.6617088282
  C        11.2750978001        4.1452691938        4.0153513124
  S        11.5303396599        1.5771214288        4.2677538974
  H        12.5246145004        1.0541276817       13.0590562365
  H        14.2649373677        1.4006418040       13.0421172873
  C        13.3828196248        3.0109145423       13.7234227921
  N         7.9858507617        8.8387291331       12.0940760401
  C         7.5059295440        8.4790799074       14.3436660380
  C         6.9282793559        6.2725616333       15.3538351768
  H         7.1296854174        4.6822136405       13.8593791289
  C        12.4049881591        6.2515763613        4.8416942465
  C        10.0700970425        6.3123216270        3.9077668791
  C        11.5308186550        3.6702297720        2.7343295715
  C        11.7765037273        2.2802165981        2.7276537303
  H        13.2370836520        3.9458943768       13.1184351774
  H        14.3798048329        3.1252016989       14.1599603936
  C        12.2999821378        2.8250488050       14.7159697166
  S         7.8940605253       10.3406783777       12.7633865550
  N         7.5181056865        9.9055367797       14.3175627066
  C         7.2338340254        7.7328671856       15.5463908002
  H         6.4483933048        5.6373177969       16.0985676538
  H        12.0417766330        7.1381948830        5.3698766893
  H        12.6485927446        6.6393476583        3.8936891007
  C        13.4956644346        5.4207732007        5.3733881795
  H         9.7847880683        7.1926309755        4.4364652916
  H        10.4993871539        6.6763378301        2.9738318391
  C         8.7805582338        5.6464404216        3.5022731877
  H        11.5975190458        4.4242758165        1.9251913825
  C        11.9495212948        1.4866605619        1.4660182022
  H        12.0342786518        3.7601369436       15.1757069203
  H        11.3946136599        2.5074270882       14.2528558311
  C        12.6441197990        1.8496741206       15.8262976608
  C         7.1246320087        8.4738801078       16.7846592638
  H        13.1121816440        4.9390549642        6.2598528102
  H        13.7428380468        4.6387611740        4.6672045192
  C        14.8002204311        6.2603274258        5.7683298134
  H         8.3584225150        5.0937373780        4.3346742256
  H         8.9779851231        4.8405612541        2.7766120818
  C         7.7993110159        6.6131033812        2.7748549290
  C        12.0597366127        0.0632241818        1.2847357523
  C        12.1635607057        2.2586073202        0.1995175816
  H        13.2221802286        0.9817549323       15.6092091980
  H        11.6075114132        1.4437355539       16.0833082434
  C        13.2089541304        2.5650214294       16.9433999597
  H         7.2882163268        9.5358468033       16.7036285186
  C         6.6287265097        8.0497841022       17.9869951646
  H        14.3312805240        7.0991852946        6.1995215481
  H        15.2457287899        6.6593017876        4.9038683384
  C        15.6750483881        5.5526187630        6.7995293921
  H         7.7268054218        7.5470945214        3.3263181209
  H         8.2843295319        6.7686030092        1.8230104816
  C         6.3861877954        5.9443011165        2.5345889267
  N        11.8958591106       -0.8579879861        2.2968379753
  C        12.4764255187       -0.5801690906        0.1116359734
  C        12.5848557760        1.6416562184       -0.9450935368
  H        12.1325771840        3.3348910453        0.2401127062
  H        12.3840726679        3.1310742473       17.3959389537
  H        13.9897867517        3.2897446318       16.8090005748
  H        13.5303587626        1.8668839878       17.6981601245
  S         6.2287041016        6.5337433752       18.5369807575
  C         6.6309342570        9.0741655944       19.0804382040
  H        15.6270530603        6.0945126712        7.7557687313
  H        15.1411826942        4.5664663518        6.9748656917
  C        17.0924721686        5.5087502818        6.2851327055
  H         6.1215004557        5.2975359315        3.3459879277
  H         6.4130181297        5.4606793857        1.6399645770
  C         5.2033944107        6.9241906030        2.4373415891
  S        11.9805094259       -2.3374277464        1.7056917117
  N        12.2909448906       -1.9009875632        0.1748715450
  C        12.7026326219        0.1281680280       -1.0748252715
  H        12.8750903047        2.2769012029       -1.7573404619
  C         6.0814484242        7.1572253224       20.1522714266
  N         6.2664390870        8.4756520204       20.2806314128
  O         7.0021915519       10.2242545540       18.8691819498
  H        17.2379800655        4.9724172251        5.3107576286
  H        17.4098034691        6.5072381625        5.9886296397
  C        18.1175789710        4.8784329794        7.2841299484
  H         4.2743085228        6.4364126974        2.4770557430
  H         5.2859617395        7.6147542300        3.2084877408
  C         5.1382422856        7.6962521177        1.0808198137
  C        12.9779632778       -0.5797077039       -2.2824937966
  S         5.3928655648        6.3424786546       21.5019127210
  C         6.2953214706        9.1779207787       21.5819235678
  H        17.5024813962        4.5084967697        8.1151097122
  H        18.5309396199        3.9552350192        6.8168665849
  C        19.1828553227        5.9498187110        7.7443436507
  H         4.9406072867        6.9539320423        0.2733895360
  H         6.1076621409        8.1104448968        1.0003558556
  C         4.0257979469        8.7831589730        0.9527915933
  H        12.7081016057       -1.6185207800       -2.1687332156
  C        13.5440853721       -0.2084983838       -3.4927965632
  H         5.5316555646        8.8509858040       22.3202863603
  H         6.0894279846       10.2715298982       21.3811405120
  C         7.7119938486        9.0682697277       22.2050802053
  H        19.5362312125        5.6422585229        8.7356398094
  H        18.5595521120        6.8708153151        7.8560049172
  C        20.3171452144        6.0105683109        6.7504932857
  H         3.8902510614        9.0760818396       -0.0808159629
  H         3.0564790914        8.3045171467        1.2858553237
  C         4.2473168254       10.0080455618        1.8375345477
  S        14.0640628809        1.3746448698       -3.8775043973
  C        13.5374346272       -1.2199859969       -4.5796077038
  H         7.3947903039        8.8251786798       23.2884129027
  H         8.2597755355       10.0007828748       22.2029493823
  H         8.3826954495        8.3353609991       21.8497411915
  H        19.8222601217        6.6551022234        6.0125895336
  H        21.1961543598        6.4099508888        7.2855918126
  H        20.5382343649        5.0695975542        6.2537870412
  H         3.6138805230        9.9616355743        2.7572375758
  H         5.2572940193       10.1146853990        2.2291733739
  H         4.0504471953       10.9210098253        1.2862938499
  C        14.2738773424        0.7190112484       -5.5294290959
  N        14.0766650714       -0.6412725546       -5.6557003556
  O        13.4138935449       -2.4102920020       -4.4401092290
  S        15.0032569693        1.6171658436       -6.8060238932
  C        14.2433941551       -1.3519829448       -6.8939895756
  H        14.1941073197       -2.4335134383       -6.7850530403
  H        15.1459427781       -1.0155620759       -7.4521158994
  C        13.0309130470       -1.0443710396       -7.7860635002
  H        13.0468710352       -1.7912351337       -8.6255553430
  H        13.0725555732       -0.0922679015       -8.3551761464
  H        12.0989602994       -1.0898941646       -7.2458316086
