352
 i =    84700, time =    42350.000, E =        98.2736662832
  H        11.5899812104        6.9725276844       33.0730069251
  C        11.8913090585        5.9747322090       32.8173185628
  H        12.8522795500        5.9688223978       32.4395719124
  C        10.9402772289        5.6254421169       31.7091245818
  C        11.6677220122        5.0887860027       34.0936267854
  C        11.2831866978        6.3747040757       30.3585632202
  H        10.8733475913        4.5930591257       31.4455037535
  H         9.9155179619        5.9298568533       31.9708017043
  H        10.6681007954        5.1201867442       34.4386218437
  H        12.0410947273        4.0521423966       33.9436551164
  H        12.2877038410        5.5652036625       34.8609539097
  C        10.2828107666        5.9809554414       29.3018689739
  H        12.2499087993        6.1318606447       29.9636747768
  H        11.2015126520        7.4361456320       30.4722754072
  C        10.7905234621        5.9744758518       27.8799705386
  H         9.8134270745        4.9986840317       29.6054730082
  H         9.5703071327        6.7776037273       29.1881922402
  C        10.0020929118        5.1830151239       26.8657553656
  H        11.7234772513        5.6163890893       27.7913937973
  H        10.7700135219        7.0159623443       27.6146775219
  C         8.8579858022        6.0709790384       26.3440077608
  H        10.5813806230        4.8867284709       26.0039456774
  H         9.5991282180        4.2737030792       27.2938092031
  C         7.6471289841        5.2996303812       25.7114966712
  H         8.3886870115        6.6726887433       27.1351292233
  H         9.2453138500        6.7268664847       25.5896608554
  C         7.2344226489        4.0427167092       26.4494508360
  C         7.9932152780        4.4372200029       24.4866743429
  C         6.4291311547        6.3110848692       25.5288391771
  C         7.3791558388        2.8880861235       25.7190918509
  C         6.9005422241        3.7423183869       27.7904357059
  C         7.9260706824        3.0934655149       24.4615128786
  C         8.5234847148        4.9626990991       23.3085198101
  H         6.7789626609        7.0859468377       24.7652585370
  H         6.3406485191        6.9334516584       26.4632979072
  C         5.0821509254        5.6083294903       25.1998687419
  S         7.0111401692        1.4392054679       26.5965408429
  C         6.6112664177        2.3860668288       27.9840281407
  H         6.8507350370        4.5907939676       28.5241235819
  C         8.3416696818        2.3882821536       23.3540739761
  H         8.4801336414        6.0778709212       23.2246141800
  C         8.8040589273        4.2808203044       22.1917080782
  H         5.1306702636        5.3524731801       24.1848162271
  H         4.8726954403        4.6943660161       25.8346239031
  C         3.9609628821        6.5876485115       25.3872481576
  C         6.0519681424        1.6973473556       29.2156869235
  C         8.8063014692        2.9489852334       22.1334542818
  H         8.3520205996        1.3285334624       23.3289295368
  C         9.2592803080        4.6598893103       20.9783232444
  H         3.1125209672        6.3898796111       24.7343653160
  H         4.3475350789        7.5301841264       24.9873075850
  C         3.4572295677        6.5734314683       26.8822442059
  C         6.0650119880        0.2611503206       29.4684580839
  C         5.3667620903        2.5799294995       30.2743595124
  C         9.2605816699        2.2356822504       20.9056036646
  C         9.5222504928        3.5763509396       20.1771528049
  S         9.4610454040        6.1461895207       20.2844179056
  H         3.0724417221        7.6392873969       27.1566746380
  H         4.3248654702        6.3540322256       27.4664983022
  C         2.4228602622        5.5153621717       27.0915176379
  N         6.2571967882       -0.7110016529       28.4900301167
  C         5.7170817413       -0.2988308662       30.6711684459
  C         5.1335161060        2.0424621807       31.5413915754
  H         5.1364212803        3.6574141268       30.1743169582
  C         8.1999760360        1.3224966071       20.2245678132
  C        10.5516731241        1.4597510319       21.1565331613
  C         9.8321813038        3.9924689024       18.9135700930
  C         9.8669075244        5.3430577924       18.7829348541
  H         1.6227576219        5.6147383006       26.2981794403
  H         2.8242132349        4.5345425371       26.9256987140
  C         1.7598262066        5.5317200020       28.5077127488
  S         6.1226896600       -2.2536755066       29.1322878342
  N         5.7404980070       -1.6647888132       30.6515637622
  C         5.5099772200        0.5632349555       31.7896746429
  H         4.8034286931        2.6190212612       32.4024795702
  H         8.2213441782        0.3045137188       20.5945098209
  H         8.3887662859        1.2226918871       19.1685115442
  C         6.7507392558        1.8429912378       20.3687343595
  H        10.8312664836        0.9396110578       20.2211419458
  H        10.3272877553        0.7195801575       21.9079522405
  C        11.7524598442        2.2533586911       21.6710599702
  H        10.0557440063        3.2439282965       18.2255761413
  C        10.1429100613        6.0605303170       17.4767316800
  H         0.9987944331        4.7349180660       28.6477005066
  H         1.3058477408        6.4999266128       28.5218721494
  C         2.6523092564        5.5717169561       29.6749997681
  C         5.2819476396       -0.0853809694       33.0172672624
  H         6.9243020801        2.8922276720       20.5496992076
  H         6.1202916148        1.4253340931       21.1265646465
  C         6.1101449819        1.5409354273       19.0976202091
  H        11.4945635490        2.8454983821       22.6316774717
  H        11.8622726189        3.1772514612       21.0677025410
  C        13.0504185443        1.3612554461       21.8148236179
  C        10.0889796441        7.4340845681       17.2282729561
  C        10.4881261222        5.2329888199       16.2940989767
  H         3.4268801142        4.8957918842       29.6036141028
  H         3.1084569318        6.5322906895       29.8065841417
  C         1.8525246035        5.3397692197       31.0000252809
  H         5.5142886093       -1.1425235105       33.0195541347
  C         4.9125746469        0.2946976084       34.2748728525
  H         6.3212029154        0.5142910696       18.7921204217
  H         6.6049667893        2.1570991243       18.3842421173
  C         4.6387222600        2.0198499421       19.0544416686
  H        13.1480745038        1.0504293351       22.8365837569
  H        12.9566424443        0.5205621721       21.1485304851
  C        14.2911506783        2.0676439000       21.4563842972
  N         9.8604765548        8.4085447870       18.1998582325
  C        10.3083779898        7.9936113654       15.9844152681
  C        10.6802953859        5.8265045669       15.0356108080
  H        10.6088383381        4.2116544890       16.3250709007
  H         1.2231556757        4.4355184804       30.9075878940
  H         2.4708094567        5.2735982449       31.9461646771
  H         1.1417164032        6.2189768860       31.1199512777
  S         4.5279296539        1.8506592553       34.7812508561
  C         4.7660029553       -0.7743951830       35.3488054202
  H         4.4233210422        2.8681718442       19.6270588851
  H         4.5109931237        2.3419104084       18.0198508012
  C         3.5562166490        1.0015533272       19.4658354637
  H        14.0571449913        2.5397085154       20.4904912787
  H        15.0674785796        1.3478637961       21.2368154800
  C        14.8169248369        3.0714682007       22.5278633319
  S         9.8897456339        9.8793260870       17.4563123848
  N        10.2136945904        9.3423760354       15.9546337775
  C        10.5953511465        7.2918233716       14.8245562562
  H        10.9990166686        5.1674652897       14.2257430131
  C         4.2695268547        1.2041796794       36.4776459592
  N         4.3443765511       -0.2055651803       36.5126645324
  O         5.0744664584       -1.9428639706       35.2176208433
  H         3.2507345895        1.2417312956       20.4640089794
  H         4.0579178426        0.0236669323       19.6150686182
  C         2.3120991454        0.9557647355       18.5925302464
  H        14.2696392057        4.0644950893       22.4799553087
  H        14.6593603609        2.6758128951       23.5208777125
  C        16.3233422049        3.2810426108       22.4468675667
  C        10.9812059705        7.9983127832       13.6486117470
  S         3.5722134795        2.0616668614       37.8661551505
  C         4.2688276939       -0.9489109329       37.8010171542
  H         1.7644126112        1.6902902798       19.1376215510
  H         2.4534144166        1.3708848998       17.5321060903
  C         1.5847528337       -0.3974149145       18.7432152746
  H        16.7145228319        4.1100501069       22.9809245303
  H        16.6593301904        3.3860514092       21.4262693456
  C        17.2282288427        2.1072896400       23.0087526892
  H        10.7809437195        9.0868745899       13.6736597543
  C        11.5548057471        7.6364586215       12.4749324349
  H         3.5942931542       -0.5756227775       38.4913832629
  H         3.9203408135       -1.9502469532       37.5981471382
  C         5.5896132322       -1.0382919760       38.4815429115
  H         0.5283610805       -0.3666138305       18.3615719877
  H         1.5546367068       -0.6264180649       19.7728170726
  C         2.3761349772       -1.4891044669       18.0447299566
  H        17.0726645740        1.1137753728       22.5632041177
  H        18.1924747384        2.4155476693       22.7296603224
  C        17.2152204833        2.0243407752       24.5140259302
  S        12.1119886319        6.0263847075       12.0868354510
  C        11.5356115819        8.5998396210       11.2755980776
  H         5.9661113061       -2.0788341608       38.4094405237
  H         6.2900621752       -0.4539813122       37.9273971275
  H         5.6562869865       -0.7650993614       39.5003231043
  H         2.7382500936       -1.0838654870       17.0886543041
  H         1.7402412611       -2.3139890021       17.8855310708
  H         3.1768758770       -1.9023680404       18.6526309898
  H        17.1527170368        3.0313941298       24.9804244719
  H        18.1485427838        1.4937594419       24.6973272129
  H        16.3907942040        1.3939940464       24.8966306201
  C        12.5124314657        6.6793510157       10.5106251191
  N        12.1394131027        7.9394054076       10.2502206434
  O        11.0899435657        9.7262234644       11.3074440474
  S        12.8355925256        5.7245450532        9.0025607820
  C        12.2332203727        8.6170180779        8.9401919925
  H        12.5593845053        9.6908070327        8.9247363706
  H        13.2017437721        8.2477761706        8.4876037296
  C        10.9941750516        8.5747256834        8.0042068760
  H        10.9775520311        9.4657586920        7.3252191482
  H        10.9024028679        7.7276268680        7.4225980922
  H        10.1287512684        8.6679898531        8.6424551505
  H         4.8138224024        1.4055577093       12.6469295854
  C         4.1132579055        2.1974102326       12.7688700615
  H         4.6856482930        3.1094627999       12.5944406818
  C         3.0223580297        2.0429467293       11.7384515498
  C         3.4317201933        2.1157469411       14.1317910178
  C         3.5695526630        2.1760204057       10.3356181488
  H         2.1324470068        2.6805767468       11.9385127806
  H         2.6173793112        1.0496295265       11.6626113625
  H         3.6808920120        1.2070304808       14.6641927798
  H         2.3337578615        2.1957197686       14.0672368448
  H         3.7430954434        2.9320035455       14.7128814875
  C         4.4757442344        0.9973601300        9.9339532482
  H         2.7197540364        2.1655242295        9.6545937922
  H         4.1210189644        3.1274871294       10.2842035359
  C         5.2063014233        1.2144608505        8.6066503582
  H         3.9320367362        0.0634331763        9.8134807439
  H         5.2016890160        0.7852365738       10.7051199647
  C         6.4405648804        2.1231429531        8.6213064766
  H         4.4845690017        1.5113130169        7.8633722199
  H         5.4001328609        0.2596821741        8.2102966239
  C         7.7403147017        1.5109661705        9.1647560084
  H         6.6023659685        2.3712437122        7.5534197348
  H         6.0746651440        3.0173671113        9.2270960464
  C         9.0144884561        2.4436628083        9.3355761420
  H         7.9594931972        0.6908440657        8.5242640142
  H         7.4743054178        0.9536403523       10.0420132219
  C         8.6409621142        3.7518583854        9.9094404092
  C         9.3382335217        3.0817746830        7.9900017759
  C        10.3077619154        1.8060178650       10.0714964920
  C         8.7485635618        4.8497830664        9.1084794137
  C         8.2456627228        4.1086511969       11.1917272269
  C         9.2193108270        4.4566778763        7.8734255155
  C         9.8248286020        2.4916901229        6.8025634737
  H         9.9437161403        1.2230406835       10.8909213087
  H        10.7516277598        1.1085248538        9.3045422525
  C        11.5019750111        2.8171031872       10.4971755655
  S         8.4415632355        6.3198876275        9.9058522101
  C         8.1264304967        5.4460836769       11.3101939261
  H         8.2769173411        3.3088470304       11.9136454130
  C         9.6070544351        5.0467095396        6.6958478392
  H         9.9164895225        1.3908455754        6.8848450305
  C        10.1254277063        3.1920603369        5.6264811134
  H        11.0008265562        3.7485374287       10.8699088047
  H        12.0915934566        3.0160283414        9.6581478230
  C        12.6805918350        2.3586802957       11.4055291482
  C         7.8235878207        6.0561040325       12.6246095924
  C        10.0871904997        4.5124642208        5.5332684731
  H         9.4066613787        6.0715572108        6.6409512818
  C        10.5658871276        2.8578645796        4.3366320401
  H        13.2138346986        3.2264728905       11.7439229839
  H        13.3408217953        1.7629565018       10.8425400987
  C        12.1306874037        1.5480591921       12.6406448375
  C         7.6842548609        7.4135777274       12.8854942208
  C         7.3738977125        5.1806732634       13.7424877848
  C        10.4208270285        5.2630153992        4.2858207250
  C        10.8293250499        3.9537369153        3.5693923132
  S        10.9660296906        1.3891879378        3.5524170506
  H        11.1596243429        1.0946625602       12.6043970368
  H        12.7089546782        0.7582606417       13.0192981145
  C        11.9738897768        2.4688212847       13.8663324679
  N         7.8401552500        8.4662386983       11.9771279532
  C         7.4361696768        7.9397890485       14.1519053525
  C         6.9707997328        5.7560813940       15.0079213321
  H         7.2365447939        4.1511603592       13.6368228359
  C        11.6774922533        6.2241881478        4.3618240757
  C         9.1126041889        5.9835840699        3.7630761478
  C        11.2815905031        3.5838613816        2.2675612861
  C        11.4154817951        2.2106723360        2.1395621728
  H        11.0102896965        2.9199437002       13.8228194320
  H        12.6297307255        3.3531465335       13.9511577153
  C        11.8785626912        1.6308692513       15.1525075886
  S         7.7983086297        9.9033473930       12.6857404177
  N         7.4386505878        9.3025090297       14.1614960268
  C         7.1498634724        7.1647512652       15.3081937639
  H         6.7755181448        5.0695724387       15.8216644146
  H        11.3260751407        7.1266129284        4.7265891137
  H        12.0278908665        6.4691301418        3.4096074265
  C        12.8694866271        5.6690495693        5.1249770577
  H         8.8049739327        6.8799552607        4.4460415911
  H         9.3087347402        6.3851493870        2.7496872444
  C         7.9203833157        5.1146303369        3.5490990426
  H        11.3643429471        4.3188537998        1.5664739603
  C        11.6675218224        1.4993081042        0.8239098036
  H        10.8632962825        1.7083025665       15.4743009315
  H        12.1111393229        0.6085168794       15.0270540922
  C        12.7372796620        2.1666242072       16.2865956290
  C         6.7637772218        7.8519458828       16.5295636493
  H        12.5538979565        5.6428218811        6.1766520696
  H        12.9487459986        4.6462454152        4.8878837348
  C        14.1691217458        6.4716252341        5.0809112429
  H         7.7207284375        4.7585767845        4.5741609825
  H         8.0432830559        4.2784693502        2.9259368698
  C         6.6086532248        5.7699699436        3.0668498876
  C        11.7393703605        0.0792381539        0.7304110616
  C        12.0177499419        2.1866424473       -0.4542679931
  H        12.6998993807        3.2168989942       16.4572429749
  H        13.8366820579        2.0195147857       16.1196497918
  C        12.4902262042        1.3739265184       17.5598046562
  H         6.9686698972        8.8933859158       16.4574614835
  C         6.5384771323        7.4401639679       17.8336916422
  H        13.9937819628        7.5100206363        5.1329340979
  H        14.6846947660        6.2340606970        4.1386177981
  C        14.9896709094        6.1546026044        6.2188013724
  H         5.7808568544        5.1315433029        3.4025939960
  H         6.3856480848        6.7346018082        3.5764941205
  C         6.5779275281        6.0400071405        1.5581805456
  N        11.5870327927       -0.8055803563        1.7987524718
  C        12.0699172590       -0.5791324711       -0.4516621238
  C        12.3533976970        1.5610895801       -1.6458036058
  H        11.9702569144        3.2387025130       -0.4388044472
  H        11.5856839658        1.5856473584       17.9702065767
  H        13.2101740925        1.6546203692       18.3376825983
  H        12.5309920559        0.3254149245       17.4058686273
  S         6.2328329897        5.8775248811       18.4017143024
  C         6.6244689882        8.5620907842       18.8178975214
  H        15.0252082307        6.9195858254        7.0832089158
  H        14.5609017516        5.3209057288        6.6811382292
  C        16.3962875314        5.7950936393        5.8921593630
  H         7.1568372027        5.3204502614        0.9117325632
  H         7.1646534919        6.9230742429        1.3721512332
  C         5.0865593291        6.2666354416        1.1604391623
  S        11.7798260851       -2.3368794312        1.3516271498
  N        12.0594320222       -1.9164892158       -0.2216067637
  C        12.3778940067        0.0593867540       -1.6706899555
  H        12.6038308262        2.2638024735       -2.4258036168
  C         6.1680078050        6.7060985786       19.9687232015
  N         6.1736590154        8.0620120991       19.9152434203
  O         6.8692986151        9.7314554902       18.5649291822
  H        16.3517651822        4.9836837416        5.1602316068
  H        16.9873954847        6.6205402885        5.4120284751
  C        17.0757022983        5.1414213635        7.0862302955
  H         4.8842105375        5.9496339154        0.2206475218
  H         4.5850011889        5.5581916646        1.8175459269
  C         4.4317646995        7.6651284322        1.3677332009
  C        12.7926647444       -0.6846349477       -2.7908936081
  S         5.7487287251        5.9377518658       21.4889599337
  C         6.1515042740        8.7712047476       21.1912180274
  H        16.5214989063        5.4148820762        7.9412407882
  H        17.0544337540        4.0595188934        7.0685505231
  C        18.5119481958        5.5962200823        7.3302262247
  H         5.0303696832        8.1740926098        2.0393401270
  H         3.5585127938        7.7472939493        1.9294796979
  C         4.4812109971        8.4294949278        0.1153731890
  H        12.9912124350       -1.7510955140       -2.6987688106
  C        13.3422310798       -0.3057810854       -3.9853512940
  H         5.3068834027        8.4406185106       21.8187948546
  H         6.0926415566        9.7781551349       20.8885368979
  C         7.4965049674        8.8145595286       21.9441502256
  H        19.0925878236        5.0582656108        8.0774957093
  H        18.5106930496        6.6249715350        7.6436166431
  C        19.3691442094        5.4699303115        6.1078032446
  H         5.2936407906        8.1106324687       -0.5535986263
  H         3.5892913152        8.2147802517       -0.4665373011
  C         4.5756561368        9.9173617544        0.3583119099
  S        13.7059422844        1.2351976271       -4.5245639199
  C        13.6255371835       -1.3390504901       -5.0247213746
  H         7.9118621100        7.7663535591       22.0080749951
  H         7.2847717763        9.2015179325       22.9569054129
  H         8.1047405827        9.4170903496       21.2694485317
  H        19.4893247391        4.3771849459        5.9659715861
  H        18.8529148429        5.9062382972        5.2093064735
  H        20.3205978817        6.0723077989        6.2521964630
  H         5.4712084593       10.2318211350        0.8924228111
  H         4.3887208948       10.5202642874       -0.5772022084
  H         3.7088143796       10.2157011056        0.9492319314
  C        14.2775879141        0.6017022467       -6.0090862610
  N        14.2790483638       -0.7558742029       -6.0515494887
  O        13.4840046673       -2.5634495708       -4.8838500355
  S        15.3610726817        1.3593623959       -7.1475286074
  C        14.7644774023       -1.6178830161       -7.1472237454
  H        14.9664819142       -2.4975403640       -6.6495855510
  H        15.7060755059       -1.2149664566       -7.4695631923
  C        13.6048797846       -1.5264719376       -8.2482283921
  H        12.5956626114       -1.6095823150       -7.8564769249
  H        13.6969677487       -2.3519022641       -8.8737823412
  H        13.6959662410       -0.6538579938       -8.8947065546
