352
 i =   100300, time =    50150.000, E =        98.7647512027
  H        12.2890279495        6.8527323384       32.6622040539
  C        11.8735183942        5.8684089609       32.7250311975
  H        12.6978358869        5.2278390124       32.4296724747
  C        10.8431066483        5.7024014272       31.6307724414
  C        11.2801790138        5.5255803986       34.0783587462
  C        11.2711346028        6.0103763178       30.2352374577
  H        10.5301627728        4.6904532149       31.8155009526
  H        10.0240497118        6.2695675610       32.0845826539
  H        10.6545435225        6.3930176611       34.4152537810
  H        10.7801875129        4.5782511940       34.0603393683
  H        12.1239852647        5.4244264826       34.8106632605
  C        10.4713065108        5.1607202136       29.2209195040
  H        12.2824150910        6.0481761029       30.1714675914
  H        11.0842960198        7.0335341256       29.9958663683
  C        10.8255453370        5.5479280848       27.6674406851
  H        10.7479299884        4.1419619978       29.4213429938
  H         9.3959964329        5.2979554658       29.3807908466
  C         9.8171757239        4.8043436031       26.7054377953
  H        11.7953971740        5.1310430577       27.4304162181
  H        10.7636736143        6.6488313021       27.6347181079
  C         8.7138346178        5.7537936698       26.2387932258
  H        10.3578422337        4.4693330823       25.7649271364
  H         9.4794628129        3.8377041121       27.1723713047
  C         7.5735631828        5.1066756839       25.5057705959
  H         8.3011644304        6.3188221807       27.0590182975
  H         9.1220799057        6.5119004649       25.5939110882
  C         7.1982701061        3.7442112429       26.2652109373
  C         7.9533640516        4.3750731963       24.2100010353
  C         6.3430854819        6.0968837167       25.4263118762
  C         7.2608924808        2.6750863622       25.3910262413
  C         6.7696307585        3.3578923146       27.5130760283
  C         7.8061747034        3.0357468016       24.1591011134
  C         8.3776006930        4.8995717199       23.0161802675
  H         6.6537967288        6.9616325499       24.8421314157
  H         6.1883240948        6.5012274127       26.4234315124
  C         5.0578613748        5.4515129186       24.8746938746
  S         6.7480911503        1.1412084698       26.0561369165
  C         6.4969740628        2.0150638962       27.5581111070
  H         6.6721464234        3.9802998244       28.2903960776
  C         8.1764484322        2.3969772999       22.9883358199
  H         8.5395635229        5.9456732539       23.1207487767
  C         8.7729504719        4.2645244806       21.8687212997
  H         5.2997093293        5.1368657195       23.8627655568
  H         4.8756181401        4.5412473598       25.3684087848
  C         3.7916511280        6.3128087656       24.8928652972
  C         6.0630905766        1.3670954030       28.8431908826
  C         8.7050181114        2.9209106444       21.8246555780
  H         8.0790111829        1.3063538267       23.0519166937
  C         9.1603805049        4.6268736280       20.5776986874
  H         3.1339825704        5.9290431581       24.1095484068
  H         3.9559339830        7.3901786920       24.5669272871
  C         2.9774881754        6.4139630821       26.1816051509
  C         6.0766792146       -0.0654798622       29.0712611951
  C         5.7236021338        2.1636548382       30.0193533739
  C         9.0665435769        2.1824842216       20.5392271350
  C         9.3971970466        3.4992895214       19.7893170756
  S         9.4682550330        6.0908113241       19.8705277865
  H         2.1363462538        7.0786126401       25.9374781463
  H         3.6279590313        6.8624923141       26.9755328914
  C         2.3308215043        5.0681831692       26.5818624827
  N         6.3806497890       -0.9887264545       28.0492711322
  C         5.8161970625       -0.6379347920       30.2918526165
  C         5.4009065555        1.6003012179       31.2502557904
  H         5.6313076909        3.2357516430       29.8591757973
  C         7.9135667814        1.3414402473       19.9605477696
  C        10.3237669850        1.3609723750       20.7257250949
  C         9.8365075344        3.8312224430       18.4824571473
  C         9.8241475396        5.2050189514       18.3741059903
  H         1.8907385921        4.6832278475       25.6526179711
  H         3.1391432567        4.4392178596       26.9064938599
  C         1.4538425570        5.1238855328       27.8090143418
  S         6.3479663404       -2.4244360122       28.6977678085
  N         6.0476952538       -2.0225099029       30.2439921066
  C         5.4544333897        0.1272264768       31.4622449100
  H         5.1816547563        2.2070877874       32.1479111722
  H         7.3382260176        0.7763108735       20.7573614683
  H         8.3525798753        0.5910355107       19.2844746348
  C         6.7751762079        2.2243098722       19.2696544991
  H        10.6807182680        0.8183206675       19.7810995990
  H        10.1541757154        0.6067450583       21.4154373887
  C        11.5301245547        2.2470775598       21.1134731967
  H         9.9219520647        3.0870869181       17.6656439412
  C        10.0968622716        5.9329940151       17.0765227217
  H         0.9391066391        4.2225667410       28.0281025880
  H         0.8179283189        6.0020091030       27.7818139423
  C         2.3380395430        5.1992094595       29.0357625086
  C         5.1832089987       -0.5979659752       32.7397319766
  H         7.2849014746        2.5735937701       18.3796080332
  H         6.4537973689        3.1317600278       19.8301202444
  C         5.5853751933        1.4116002652       18.8455115077
  H        11.1836569007        2.8239373672       21.9651808872
  H        11.9090331576        2.9116689077       20.2921724572
  C        12.7450933058        1.4482877821       21.6086590688
  C        10.1947945173        7.3373085165       16.9268315279
  C        10.1560821190        5.1612288107       15.7917656418
  H         2.7662180438        4.2319548949       29.2784796269
  H         3.1916217889        5.8748575297       28.9507455959
  C         1.6010536854        5.5837316225       30.2454944062
  H         5.2300158321       -1.6517045746       32.6294425977
  C         4.9858607071       -0.1410958092       34.0272036271
  H         5.0967086459        1.1051463026       19.7746196900
  H         5.8414196636        0.4651812746       18.3090174856
  C         4.5881009698        2.2579798153       18.1377725709
  H        12.4963987775        0.7435964182       22.4062540516
  H        13.2029527523        0.8717020406       20.7769993310
  C        13.8099668785        2.4542700361       22.0215932705
  N        10.0152775260        8.2263099704       17.9746576657
  C        10.6317724898        7.9436797150       15.8183636497
  C        10.5801213740        5.8054917972       14.6204561849
  H         9.9941049096        4.1211503485       15.7625695876
  H         1.4717080670        6.6830593603       30.4419535367
  H         0.5620350494        5.2672897961       30.3196009345
  H         2.1098004896        5.1797241168       31.1095423500
  S         4.7151588500        1.5485927314       34.4548533213
  C         4.9861093661       -1.0517589084       35.2142420249
  H         3.9759513345        2.8880213718       18.7893307536
  H         5.1180506724        2.8571398008       17.4317744723
  C         3.5047659475        1.4312718140       17.3965425882
  H        13.4306046450        3.0311710500       22.8809094654
  H        14.0507142214        3.1485475444       21.2858897910
  C        15.1026353730        1.6437498176       22.3931524230
  S        10.1646012130        9.7678039796       17.4724922197
  N        10.7692316217        9.3706248612       15.9766772184
  C        10.8912672266        7.2815351339       14.6016794667
  H        10.7677355093        5.2651815404       13.7282623166
  C         4.4704365979        1.0150622149       36.0996225963
  N         4.6254382639       -0.2966058852       36.2475977859
  O         5.0413065514       -2.2623572855       35.0994670739
  H         4.0403590562        0.9333250468       16.5875459053
  H         2.8236741495        2.1151220598       16.9124987677
  C         2.7828142206        0.3321373060       18.2752529832
  H        15.1864922062        1.6493332072       23.5020796346
  H        15.0824279287        0.6214070996       22.1121300642
  C        16.3338141750        2.3262577684       21.8676189298
  C        11.2344314172        8.0297851795       13.4586338315
  S         3.8052686776        2.0906031710       37.4030958543
  C         4.4253336830       -0.9760568848       37.4985110852
  H         3.5913888518       -0.0976084809       18.8616940411
  H         2.0307899503        0.7146054484       18.9332355305
  C         2.1713740208       -0.7979190647       17.4722337948
  H        16.1832288700        3.3508329065       22.1922505918
  H        16.2871162347        2.3085263217       20.7728521520
  C        17.6900466915        1.7489420724       22.3406202492
  H        10.9553353840        9.0843888233       13.5582321524
  C        11.7438231434        7.7414930618       12.2105901316
  H         3.7337115280       -0.4122202007       38.1283474040
  H         4.1293369037       -2.0216984794       37.4483674505
  C         5.7325063882       -0.9690326565       38.2425763950
  H         1.7066740387       -0.4982752979       16.5248309892
  H         1.3546590568       -1.3764215548       17.9991987780
  C         3.1560989495       -1.9575071226       17.1376604933
  H        18.0053707020        0.8144380725       21.7470826782
  H        18.3642492285        2.6434313021       22.1925811237
  C        17.8735875408        1.6461714684       23.7928786942
  S        12.3001874691        6.2001633872       11.7197724209
  C        11.6928772266        8.7653027770       11.1313404918
  H         5.7053085870       -1.4651802578       39.3004145848
  H         6.6138605773       -1.3730155236       37.7312582722
  H         5.9825518666        0.1253778450       38.4355891497
  H         3.5436183826       -2.5880726956       17.9561912769
  H         4.1087986251       -1.6278991833       16.6369518191
  H         2.8015790589       -2.6577870055       16.3304404812
  H        18.8534313236        1.3200141240       24.0802290788
  H        17.2401426744        0.9368854549       24.2507049646
  H        17.4912424883        2.5911814236       24.3045158934
  C        12.4458185863        6.9549293284       10.1244354523
  N        12.2393872732        8.2344030142       10.0325077326
  O        11.3390206303        9.9218306659       11.2093575450
  S        13.1011156067        6.0567513279        8.7421613489
  C        12.5493776242        8.9886579705        8.8141712664
  H        12.9522296767        9.9453684158        9.0904595622
  H        13.2277651366        8.4387692982        8.2347813229
  C        11.2740875636        9.2161691161        7.9922362561
  H        10.3622428994        8.7156267046        8.3485778783
  H        11.1149312091       10.2584671504        7.9051777178
  H        11.5579100595        8.8207157667        7.0412578915
  H         2.5707491620        4.3638605002       12.3718111282
  C         2.7805189872        3.2802293318       12.4643658839
  H         2.0585815444        2.6790343778       11.8789184188
  C         4.1722053361        2.9972282961       11.9004545813
  C         2.5551243685        2.8967587099       13.8602625436
  C         4.2196388042        3.0485168793       10.3655004692
  H         4.6233957180        2.0313209272       12.2162147874
  H         4.7640348348        3.8670612629       12.2160548645
  H         2.4821032462        1.7759906321       13.9112851017
  H         1.6661541051        3.3866150701       14.2720864728
  H         3.4625550017        3.2004408448       14.3817111547
  C         4.7459574755        1.6395038068        9.8717867010
  H         3.2607857109        3.1763800479        9.9233609340
  H         4.8651457544        3.9068181582       10.0914799814
  C         5.3513929727        1.6765966989        8.4420629074
  H         3.8653997109        0.9954012540        9.8131817834
  H         5.3685702495        1.1596563321       10.5672173893
  C         6.6788573736        2.4728571546        8.4287238537
  H         4.6650393158        2.1584522274        7.7716934083
  H         5.4162496332        0.6925888113        7.9919233143
  C         7.9579671200        1.8403823870        8.9475426459
  H         6.8159400815        2.7986690193        7.3667559854
  H         6.4827340484        3.4138493933        8.8694204074
  C         9.2051603210        2.7829290761        9.2581710533
  H         8.2279060463        1.0188920969        8.2862126921
  H         7.7543694040        1.3954801753        9.9180108420
  C         8.9237979432        4.1322565989        9.9599447782
  C         9.5717734597        3.4391698485        8.0203746601
  C        10.3151810679        1.9690300040        9.8701352750
  C         9.0667550986        5.2014684999        9.1461712406
  C         8.3775341552        4.5057897979       11.2130370949
  C         9.5741412421        4.7687748985        7.9243848863
  C        10.0777493237        2.7889366247        6.9179293575
  H         9.9263799199        1.3040734259       10.6914425728
  H        10.6257229350        1.2546473273        9.0738632970
  C        11.4483311479        2.8635852889       10.5171763472
  S         8.6541311881        6.7410081084        9.8904948326
  C         8.1788216619        5.8607956223       11.2819657253
  H         8.1866575470        3.8134002050       11.9207605315
  C        10.0581279677        5.4103656413        6.8224534744
  H        10.2870344617        1.7284960489        6.9256746466
  C        10.5292984755        3.3607278558        5.7955331976
  H        11.0418103496        3.5265984266       11.2148453674
  H        11.8643971885        3.6218776420        9.7907845974
  C        12.6256560708        2.0091117567       11.1204497114
  C         7.7981837050        6.5253896641       12.5414315600
  C        10.5661116353        4.7372442341        5.7123920335
  H        10.0547720757        6.4712832089        6.8975129808
  C        11.0036941111        2.9216349208        4.5586110516
  H        13.6276599753        2.5182465616       11.1513172172
  H        12.7714498908        1.1064046259       10.4560581312
  C        12.2864487161        1.5362824225       12.6022855525
  C         7.8321886249        7.8890182244       12.7789437791
  C         7.4506896551        5.6395920443       13.6590669261
  C        11.1091897212        5.3208193727        4.3959727038
  C        11.2505040958        3.9638726395        3.7180431966
  S        11.2580633378        1.4349986520        3.7623962349
  H        11.1861223712        1.6940985687       12.5743058059
  H        12.5488690848        0.5620173121       12.8439995872
  C        12.7809204216        2.4065440153       13.7640023254
  N         8.1402736324        8.8908624996       11.8700800007
  C         7.5814244605        8.4457438013       14.0248393388
  C         7.3478579167        6.1999189963       14.8830919869
  H         7.3791671818        4.5798844404       13.5726021567
  C        12.4088126516        6.1703655737        4.5837347402
  C        10.0959127447        6.1701927579        3.7068157907
  C        11.7334192398        3.5517267717        2.4384814930
  C        11.6188326397        2.2044133723        2.3052492651
  H        12.0608215096        3.2517091452       13.8276811479
  H        13.7167658813        2.7717489473       13.5032559363
  C        12.9192021377        1.6309526433       15.0968184367
  S         8.1448969651       10.3448778538       12.5854106841
  N         7.6501122822        9.8478350486       14.0465749550
  C         7.3749695841        7.6525899339       15.1604242884
  H         7.1007341433        5.5565020900       15.7254156130
  H        12.1864703119        7.0042983803        5.2082262624
  H        12.6221130889        6.5599374455        3.5651460263
  C        13.4955429006        5.2960576031        5.1914502892
  H         9.6385494078        6.9101875229        4.4684819041
  H        10.6180670560        6.8292655476        3.0098531334
  C         8.8025919503        5.3862827349        3.1106601371
  H        12.1000656566        4.2705013271        1.7355690789
  C        11.8660912652        1.4511372702        1.0561826284
  H        11.9849103335        1.1035412412       15.3002716288
  H        13.4817706405        0.7750204075       14.9451882241
  C        13.1466965544        2.4857704403       16.2491264951
  C         7.1274920028        8.2699695020       16.4140955354
  H        13.2560459229        4.9527198101        6.1608073162
  H        13.7918863764        4.4835030782        4.5410891824
  C        14.7819185067        6.0580537909        5.3316417711
  H         8.2005362852        4.9124523316        3.8925213168
  H         9.1682981138        4.6962286149        2.3878875463
  C         7.7904361845        6.3434858230        2.3726339763
  C        12.0334115148        0.0291019587        0.8825152131
  C        12.2384388756        2.2384800601       -0.1768092136
  H        12.7358882682        3.5495043545       16.2613198218
  H        14.2247700355        2.5663064223       16.2813145747
  C        12.7142559767        1.6900530690       17.4945010720
  H         7.1224183659        9.3340186925       16.3214900204
  C         6.7049988076        7.8984208887       17.6593023810
  H        14.5550470191        6.9621120963        5.8623742615
  H        15.0236337748        6.4677717733        4.3844954563
  C        15.8997128195        5.1620102859        5.9944357493
  H         7.7441511404        7.3085641022        2.8699991943
  H         8.2244416805        6.4949266354        1.3452392436
  C         6.3763648335        5.7938157521        2.2214817800
  N        11.7164097021       -0.9339279314        1.8872219798
  C        12.3957605494       -0.5667775515       -0.3623834052
  C        12.5587299858        1.6110027123       -1.3961821002
  H        12.3556165679        3.2572374034       -0.1674241443
  H        12.9507432530        2.2303645515       18.4370444397
  H        13.2246387042        0.7212260729       17.5718427515
  H        11.6486173249        1.4395236886       17.5837308516
  S         6.4647512240        6.2657522139       18.2679270467
  C         6.6792169025        8.9004584807       18.7199803873
  H        15.4956178574        4.5430493098        6.7708485934
  H        16.3148017356        4.4736762672        5.2770700397
  C        17.0991561649        5.9150172662        6.6750037063
  H         6.1215977344        5.2050358362        3.0167485766
  H         6.4825979897        5.1100991145        1.3605814919
  C         5.3554000770        6.8908481512        2.2168742042
  S        11.7568785050       -2.4320045036        1.1621082888
  N        12.3460487630       -2.0064566619       -0.2816057453
  C        12.7219333005        0.1461285464       -1.5140092371
  H        12.7564552817        2.2424655477       -2.2493616225
  C         6.3970369621        6.9878666372       19.8438195284
  N         6.2733144691        8.3249072361       19.8805636551
  O         6.9405928355       10.1439375929       18.5891256925
  H        17.5907774650        6.6271315374        6.0246482977
  H        16.7396505977        6.5929193058        7.4676115319
  C        18.1647975799        4.9558832189        7.1867287896
  H         4.3914679335        6.4207865914        2.1495291081
  H         5.4259686143        7.4130636352        3.2055690360
  C         5.6156865670        8.0885520701        1.3018876681
  C        12.9643560404       -0.5640736611       -2.7703622127
  S         5.8260298105        6.0161714682       21.2477743330
  C         6.0344530502        9.0849172276       21.0837540014
  H        17.7086779690        4.5332043798        8.0777076768
  H        18.2096502591        4.1561341090        6.5069016394
  C        19.5603820492        5.6000460594        7.3455035009
  H         5.7621990786        7.6317264264        0.2994498742
  H         6.5081651480        8.6056033732        1.5394523045
  C         4.4252335936        9.0017777358        0.9553246394
  H        12.5535720160       -1.5789366060       -2.7376507666
  C        13.5684622797       -0.0684836199       -3.9222945755
  H         5.1402313706        8.7699477202       21.6394387689
  H         5.7569910338       10.0028155967       20.7450479596
  C         7.3044506523        9.0679383777       21.8715874809
  H        20.2756495523        4.9048521346        7.7877874314
  H        19.4882581801        6.4846495419        7.8949424223
  C        20.2962213497        5.7405305149        6.0016538177
  H         4.7858819925        9.9367641385        0.5761073128
  H         3.9289825911        8.5004152697        0.1602390818
  C         3.4227230699        9.3338121471        2.1332938755
  S        14.4153079460        1.3814679430       -4.2783613409
  C        13.5276110334       -1.0016212160       -5.0617174350
  H         8.1549927084        9.3950316601       21.2883266938
  H         7.4325275289        8.0184042507       22.2436710003
  H         7.1395583380        9.6897900000       22.7503682976
  H        19.7618042763        6.4733271987        5.3457654134
  H        21.3113489733        6.1430330372        6.1519643532
  H        20.3747140337        4.8455087413        5.4632136613
  H         2.8803727209       10.2944639070        1.9002258953
  H         2.8587486443        8.4966063233        2.4011813384
  H         3.9727652821        9.7842019148        2.9727624426
  C        14.5633027553        0.7722257738       -5.9070675162
  N        14.1835239985       -0.5133478771       -6.1209592285
  O        13.2715960195       -2.1817409411       -4.9500351037
  S        15.4077015415        1.6136102927       -7.1376191161
  C        14.4443550052       -1.3087214241       -7.3095936046
  H        14.7465168665       -2.2414284557       -6.9521018898
  H        15.3234600017       -0.9853779760       -7.8814851163
  C        13.0746605154       -1.4055317393       -8.0328202018
  H        12.2971362192       -1.7079090477       -7.3181002353
  H        13.0915684529       -2.3734463918       -8.5730024858
  H        12.8362639388       -0.5990740600       -8.6506963292
