352
 i =    33100, time =    16550.000, E =        98.6909472205
  H        10.3663423010        4.4689893769       32.1084796033
  C        10.6905933168        5.4860671785       32.4552793086
  H         9.7407198460        5.9333060068       32.7310605017
  C        11.1812436482        6.4436500050       31.3631132011
  C        11.7611653743        5.3961085002       33.5445676208
  C        11.3225686167        5.6777554480       30.0028512596
  H        10.4061533705        7.2336123906       31.3605725813
  H        12.1408628964        6.9190560787       31.7660909024
  H        11.6493260350        4.6257598992       34.2461454595
  H        12.7895505505        5.1646997778       33.0991925223
  H        11.7706307028        6.2529176146       34.2778333028
  C        10.0366242630        5.6473924408       29.1815032846
  H        11.5540580275        4.6510373058       30.2299013775
  H        12.0502659404        6.0890856102       29.3646565509
  C        10.5227901462        5.6744118868       27.7678207964
  H         9.5415583005        4.7230866871       29.3428984113
  H         9.5050108142        6.4991269375       29.4691950009
  C         9.5103280868        5.0262351344       26.7554179859
  H        11.2561903226        4.8809445985       27.6741140304
  H        10.8596504642        6.6602339010       27.4462234335
  C         8.3359668279        5.9025120292       26.4622593570
  H        10.0635535334        4.7165423113       25.8311722373
  H         9.2796483759        4.0635474873       27.1790951649
  C         7.1458688260        5.1044792808       25.8429229463
  H         7.9431303761        6.4740417545       27.3559668622
  H         8.6826280323        6.5809611879       25.7559103635
  C         6.8583571295        3.8317917849       26.5506689933
  C         7.4815355800        4.4483141267       24.5404230243
  C         5.9288485801        5.9776423082       25.7417431195
  C         6.9752931023        2.7454086246       25.7179586350
  C         6.5954487940        3.4843375995       27.8688670957
  C         7.4006935645        3.1275430462       24.4210870806
  C         7.9493085463        5.0301259160       23.3541811444
  H         6.2143332046        7.0107785800       25.2792632516
  H         5.6981756292        6.2649349106       26.7694655304
  C         4.6947243770        5.4089169897       25.0887956793
  S         6.6352952231        1.2712730028       26.3795270298
  C         6.2896494650        2.0958417591       27.9204422873
  H         6.5318718947        4.2026940054       28.6328419301
  C         7.6780281733        2.4286234806       23.2488711440
  H         8.2060932757        6.0713769279       23.3771480764
  C         8.3027848649        4.3820235429       22.1880549179
  H         4.9140752967        5.2597545994       24.0076481568
  H         4.3619761210        4.4297662316       25.5056132850
  C         3.4958406034        6.3215525809       25.0971330746
  C         5.8771297716        1.4021649502       29.2024230309
  C         8.2147335147        3.0272757363       22.0591492452
  H         7.6026341418        1.3122903275       23.1237222467
  C         8.8126013507        4.6830417378       20.9522043473
  H         2.7778323990        5.9347885263       24.3534798721
  H         3.7216783806        7.3131771225       24.7665276082
  C         2.7599911814        6.2783846247       26.4972828867
  C         6.0653584647        0.0089591234       29.4975655702
  C         5.3096504001        2.2748078999       30.3234968904
  C         8.6547092620        2.2378057088       20.8848722266
  C         9.0182238695        3.5107075130       20.1450711796
  S         9.1376356321        6.1023552636       20.0606714198
  H         1.8949661174        6.9463167844       26.3911155686
  H         3.3971228976        6.8185448168       27.1926580820
  C         2.2384317849        4.9844806213       27.1057434668
  N         6.4376234010       -0.9293487253       28.5466098286
  C         5.7676448424       -0.5086520248       30.7741546228
  C         5.1144712023        1.7195521471       31.6220589363
  H         5.1114968057        3.2673497537       30.1302073676
  C         7.5803819030        1.3767817249       20.1213861401
  C         9.9680508212        1.5198928046       21.1962776426
  C         9.4355159559        3.9178536788       18.8148598368
  C         9.5099322894        5.2569099625       18.6363828558
  H         1.5678951839        4.5404806861       26.4020005673
  H         3.0122409840        4.2590543694       27.3415003303
  C         1.3902820806        5.1757237626       28.3307047454
  S         6.3446601894       -2.4025360942       29.2491639392
  N         5.9469831920       -1.9095260003       30.7541468223
  C         5.3803430021        0.2158095620       31.8959761871
  H         4.6833949988        2.3638076207       32.3907627106
  H         7.4343644803        0.4309917223       20.6299881079
  H         8.0087693904        1.3561425416       19.1358421335
  C         6.1187231144        2.0145301773       20.0617974092
  H        10.2460447701        0.9320773585       20.3604540316
  H         9.7526513169        0.9360231057       22.0959503527
  C        11.1330632222        2.3998422764       21.4964791438
  H         9.4741864348        3.1498257452       18.0134220189
  C         9.7542179603        5.9733362324       17.3580966826
  H         0.9872527729        4.1895622138       28.4736391472
  H         0.5896329072        5.8925092868       28.2646622865
  C         2.1886009621        5.4641247518       29.6281738965
  C         5.2223210407       -0.4640870036       33.1276095892
  H         6.3838195839        3.0855706605       19.8862585461
  H         5.6687411797        1.9431816362       21.0743261515
  C         5.2624903870        1.3127517552       19.0425083912
  H        11.0611020089        3.0966667113       22.2632923259
  H        11.3891650076        2.9790941044       20.6722589460
  C        12.3841808153        1.5588097518       21.7646342035
  C         9.9490727434        7.3867937697       17.1338109581
  C         9.8960079977        5.1130010250       16.1347526267
  H         2.9358796415        4.7140324267       29.9385416667
  H         2.6124897731        6.5038785683       29.5647636647
  C         1.1029556343        5.5190278329       30.7517667461
  H         5.3060106309       -1.5248863071       32.9782146586
  C         4.8862052008       -0.0620386032       34.3938669366
  H         5.2875363367        0.1895515606       19.0654377982
  H         5.8318151066        1.3729013593       18.1084008984
  C         3.7516787121        1.6604247163       18.9918382690
  H        12.6617866676        1.3965048287       22.7823177684
  H        12.2773822411        0.6508961996       21.2336804812
  C        13.6372577513        2.1742475024       21.0299553861
  N         9.7820398771        8.3529466763       18.1684498607
  C        10.1361961236        7.9486759020       15.9341710571
  C        10.2653313835        5.6931648174       14.9283599610
  H         9.8456720324        4.0610786593       16.1295459281
  H         1.5147437582        5.8660312430       31.6882677983
  H         0.3806202287        6.3213401924       30.5441110783
  H         0.6488802756        4.4950960749       30.8844565622
  S         4.6359990474        1.5098534170       34.8954585037
  C         4.8190802674       -1.0618644091       35.4190839718
  H         3.7179998120        2.4458526882       19.7239132770
  H         3.4534126865        2.1514384106       18.0286833587
  C         2.7872010669        0.5435666076       19.2907362448
  H        13.4822559991        3.2832318711       20.9451302466
  H        13.6008510953        1.7999189258       19.9994757493
  C        15.0366877004        1.9039329690       21.6363749393
  S         9.8560847081        9.8667700827       17.5221224023
  N        10.1678080513        9.3452065684       16.0171893221
  C        10.4275551549        7.1799894294       14.7936801137
  H        10.6650637346        5.0810247764       14.1377192694
  C         4.3560202454        0.7538261691       36.5055281609
  N         4.5271969500       -0.5892964291       36.6146478965
  O         4.9276022892       -2.3037543868       35.2274887573
  H         1.8087522356        1.0790747217       19.2642555053
  H         3.0427163207        0.0881141927       20.2655128747
  C         2.7357711479       -0.4733145994       18.2182547217
  H        15.2190424898        0.8569162712       21.6574828961
  H        15.7395417065        2.2936993993       20.8908451480
  C        15.3535126204        2.4267017313       23.0323476346
  C        10.6833687370        7.8943355737       13.5791341287
  S         4.0903692229        1.6565772134       38.0293024369
  C         4.4289866789       -1.3954220195       37.8339012061
  H         1.9805389505       -0.1302071447       17.4733958421
  H         3.7252203568       -0.5651476342       17.7373245143
  C         2.0869622548       -1.7367958924       18.7319623373
  H        14.5747403528        2.4229092804       23.7515624570
  H        15.6110532084        3.4769592890       22.8830138127
  C        16.6117808648        1.9155957251       23.6362223491
  H        10.4673726304        8.9230460525       13.5640527794
  C        11.1896635133        7.5119139549       12.3391420126
  H         3.7263023808       -0.9365432561       38.5419517329
  H         4.0943047583       -2.3652286261       37.5676822775
  C         5.8024802972       -1.5185947879       38.5258469093
  H         1.3304362876       -1.4364558169       19.4382815983
  H         2.7641081935       -2.3809300510       19.3694105205
  C         1.5356125708       -2.5888434804       17.5751107372
  H        16.8604645266        2.4720096319       24.5625387383
  H        16.4311373353        0.9040830805       23.8225005585
  C        17.7986473710        2.0144516796       22.7713230067
  S        11.7615139310        5.9451101702       11.9079761790
  C        11.3179937720        8.5480843413       11.2841762010
  H         5.6765255424       -1.5660258702       39.6052948376
  H         6.3488892257       -2.4369031356       38.3677302145
  H         6.3990845093       -0.5767223159       38.3092621974
  H         0.6792437559       -1.9844437640       17.1435993883
  H         1.0746258841       -3.3942574228       18.0985071979
  H         2.2985501869       -3.0284342725       16.8486598364
  H        18.0549599779        1.0824631034       22.2219531310
  H        18.5761551921        2.2971778322       23.4541340511
  H        17.6952173658        2.7395023631       21.9888699712
  C        12.2694813004        6.6559766393       10.4061872605
  N        12.0268441038        7.9761182507       10.2821887273
  O        11.0190658437        9.7315261571       11.3661247402
  S        13.0581616798        5.7248191420        9.0949403791
  C        12.4576756733        8.7365559998        9.1371315965
  H        12.3684630014        9.8208664862        9.3502749467
  H        13.4423126091        8.5536062438        8.8257576847
  C        11.5368613244        8.2642712850        8.0062964098
  H        10.7629324467        7.6817181055        8.5042777026
  H        10.9206767766        9.0230577530        7.5734486540
  H        12.0743472760        7.6572957233        7.2518359083
  H         3.1195288844        1.0985144066       13.4162455192
  C         3.7496559542        1.3459209221       12.5555153235
  H         4.1133582997        0.3410346107       12.3558032506
  C         2.8389338855        2.0001779457       11.5107696432
  C         4.9521865284        2.1635498090       12.9415914445
  C         3.6082188918        2.4778876775       10.1771926450
  H         2.3057936395        2.8313708378       11.8548105604
  H         2.0440660278        1.2867666451       11.2580748477
  H         5.6488450966        1.4590105415       13.4164159942
  H         4.6446710521        2.8769534383       13.6981140676
  H         5.6164329777        2.5513935575       12.1725359500
  C         4.3368807870        1.3646367112        9.3946492678
  H         3.0827005781        3.1588027373        9.4777841492
  H         4.4159999142        3.1701255701       10.5580083827
  C         5.1390603028        1.8258793328        8.1665016605
  H         3.5059049764        0.7267366723        9.0402137395
  H         4.9730660141        0.6213582501       10.0131577706
  C         6.4297101821        2.5968837675        8.4370946652
  H         4.4622362753        2.3849956984        7.5365000223
  H         5.2766177328        0.9596326516        7.5291471205
  C         7.5443180165        1.8623247869        9.1279759591
  H         6.8819770545        2.8728936968        7.4563263476
  H         6.1812796028        3.6046500710        8.8538292830
  C         8.8283107430        2.6888833062        9.4465110557
  H         7.7812031825        0.8966895928        8.6941089845
  H         7.1100117638        1.5931233183       10.0951764945
  C         8.5719504638        4.0871000088       10.1628036074
  C         9.3078428835        3.4177703846        8.2355769616
  C         9.7542894234        1.8103644821       10.2215870000
  C         8.8159663442        5.1149180289        9.3073004118
  C         8.0494104492        4.4819450181       11.4255841450
  C         9.2572285847        4.7376315546        8.0936172420
  C         9.7618124681        2.8226543780        7.0664684403
  H         9.3656987773        1.2452080907       11.0516604567
  H        10.1690566651        1.0653460992        9.4545016149
  C        10.8657390377        2.6741400900       10.7710251717
  S         8.4128210194        6.6636767225       10.0876974832
  C         7.9913240944        5.8397395328       11.5546939403
  H         7.8559467276        3.7718712492       12.1890293816
  C         9.6061589720        5.3733239929        6.9150702750
  H         9.8775214417        1.7959754708        7.1415930435
  C        10.1179160523        3.3781053570        5.8950949891
  H        10.4226613510        3.2803040755       11.5526029298
  H        11.2804835859        3.3522872573        9.9515493571
  C        11.9732149407        1.8741998535       11.4864804656
  C         7.4295782151        6.5524507423       12.7898759599
  C        10.0079188300        4.7272038921        5.7360368336
  H         9.6161652251        6.3966560595        6.8246309266
  C        10.4794674269        2.8863031862        4.6449696089
  H        12.7051767617        1.6683650586       10.7257125139
  H        11.5092124910        1.0061646002       11.8476188961
  C        12.6420021860        2.5680458791       12.6515563583
  C         7.5038641231        7.9916523298       13.0463527390
  C         6.7922673313        5.8052461268       13.8818506158
  C        10.4186085092        5.3547159036        4.4045248293
  C        10.7663602946        3.9454438491        3.8232259696
  S        10.7927522263        1.3864174546        3.9130972115
  H        13.3287684057        3.3628839376       12.3237823646
  H        11.8776655054        3.1234527287       13.2329884581
  C        13.5462352107        1.7815875909       13.5870959110
  N         7.7931008892        8.9400435552       12.0693114251
  C         7.1949987496        8.5853567773       14.2681159347
  C         6.5284206873        6.3656136445       15.0657248971
  H         6.6123149950        4.7273902798       13.8495872785
  C        11.6065475256        6.2940333649        4.5582711220
  C         9.1777316396        5.9622693633        3.6911336076
  C        11.1298533845        3.5053609740        2.5549728475
  C        11.2694326108        2.1526611384        2.4801037021
  H        14.2010040065        2.5718930355       14.0086284233
  H        13.9967516742        1.1212118376       12.9480689704
  C        12.8167049558        1.0151997750       14.7216113350
  S         7.6428023345       10.4457685711       12.6724845850
  N         7.3565526151        9.9640562208       14.2301741140
  C         6.8022340113        7.7854733003       15.3304556165
  H         6.1031147232        5.6334244205       15.7756465115
  H        11.3720290799        7.2251486508        5.1030154690
  H        11.8300055525        6.6140961024        3.4930973155
  C        12.7549292787        5.5107044092        5.1902294353
  H         8.7382615844        6.7338939520        4.2013688315
  H         9.4179549592        6.3287952812        2.6650002328
  C         8.0537200030        4.9795311665        3.2821517845
  H        11.3680657113        4.2227507142        1.8582983612
  C        11.7124258458        1.3341825418        1.3394706598
  H        11.9164180577        0.6109359081       14.3437182313
  H        13.4157350286        0.2199056920       15.0075855273
  C        12.5898594266        2.0124461495       15.8714054114
  C         6.5151298545        8.5192315951       16.5769103462
  H        12.5461507971        5.2462230021        6.1802476873
  H        13.1406056558        4.6922900133        4.5701503643
  C        14.0255065668        6.3198750846        5.4362010776
  H         7.4447747295        4.7076464025        4.2166390765
  H         8.5022576360        4.1018757942        2.7774394388
  C         7.0669583106        5.4648672801        2.1150006317
  C        11.8195691807       -0.0769480976        1.1690110960
  C        11.9179721735        2.0434438833        0.0546296200
  H        12.2738013992        2.9605170876       15.5276148566
  H        13.4505342032        2.2288881602       16.4596018887
  C        11.4079191329        1.7783949514       16.8408339970
  H         6.7417090416        9.5375832519       16.5071152836
  C         6.2693167471        8.0647626426       17.8830902481
  H        13.9466467776        6.9170398257        6.3408970556
  H        14.2664880751        7.0207079816        4.6463486685
  C        15.1511003777        5.3200377028        5.6402592725
  H         7.5706875691        6.0999399755        1.4006744561
  H         6.6790641311        4.6996883401        1.4871589958
  C         5.9677646708        6.3420625446        2.7302798262
  N        11.7739347906       -0.9839493596        2.2086421029
  C        12.0804020674       -0.7297586937       -0.0435766382
  C        12.1712232620        1.4474154634       -1.1604504759
  H        12.1051009645        3.0658234836        0.1485458923
  H        11.7452825877        2.3836612263       17.7777769984
  H        11.4926642442        0.7882037782       17.0173483052
  H        10.4397391535        2.0109778587       16.5432703599
  S         6.1344522326        6.4180358384       18.3496466496
  C         6.1039658896        9.0554135986       19.0098748625
  H        14.8211731497        4.4326158298        6.2456024750
  H        15.4978426527        4.9987540306        4.6964031122
  C        16.2825429714        6.0088068495        6.3314403925
  H         6.3359453567        6.6813646036        3.7681569103
  H         5.0341555791        5.7583145493        2.8940654022
  C         5.7090841525        7.5300237883        1.9269429280
  S        11.8837629466       -2.5114094277        1.6370358771
  N        12.0636038004       -2.1343023828        0.0536923437
  C        12.2636294207       -0.0024453977       -1.2889056417
  H        12.3164625019        2.0638451445       -1.9440820077
  C         5.7965666700        7.0703167368       19.9444907872
  N         5.8293293317        8.3999962843       20.1212286684
  O         6.2845954260       10.2538747471       18.8406014457
  H        16.7944316879        6.6863126635        5.6684941293
  H        16.1291810147        6.6712718549        7.1632859837
  C        17.3574863736        5.0088610346        6.7166594772
  H         6.5741176678        7.9734320605        1.5567354120
  H         5.1443364015        7.1717928687        1.1030895812
  C         4.7915606569        8.4922198146        2.6220939461
  C        12.6210713058       -0.7173828933       -2.4286484593
  S         5.3205276859        6.1115310290       21.3483396837
  C         5.9692768860        9.1230767316       21.3902142018
  H        16.8317486340        4.1848488821        7.2266433902
  H        17.7393520203        4.5013190753        5.8947622314
  C        18.4865672370        5.5877087520        7.5057852096
  H         4.9858530614        8.4898177316        3.7215249227
  H         3.7986616352        8.0815406784        2.4500426082
  C         4.7909648320        9.9121827526        1.9593120838
  H        12.3770316553       -1.7720539073       -2.3220394280
  C        13.1537612187       -0.3107458886       -3.6491775581
  H         5.1224712265        8.8398707063       22.0778312072
  H         5.8038973337       10.1737313399       21.3347677999
  C         7.3191248085        8.6854410826       21.9831209596
  H        18.4499146438        5.2652726089        8.5434474921
  H        18.4134679387        6.6694859469        7.5106503290
  C        19.8252131056        5.4137609809        6.8512835338
  H         4.4920424885       10.6295110146        2.7400781943
  H         5.7951803477       10.0587473808        1.7357499591
  C         3.8880996472       10.0314458569        0.7965830287
  S        13.7012141007        1.2379946778       -4.0136303706
  C        13.2981674611       -1.3630473883       -4.6602027207
  H         7.5877014499        9.3759953982       22.7704133216
  H         8.1154118670        8.6492972681       21.2324894605
  H         7.3096573124        7.7163422924       22.4041687445
  H        20.0122619049        4.4114994673        6.3522750890
  H        20.0903388601        6.1657874498        6.0648845238
  H        20.4746384595        5.6727449398        7.5893748482
  H         3.6190618110       11.1165219358        0.8205611069
  H         4.3757643653        9.7702254523       -0.1441724730
  H         2.9560702446        9.5457845990        0.8937574349
  C        14.1515448541        0.5695312488       -5.6254501309
  N        13.9534563914       -0.7887433430       -5.6747010782
  O        12.9327708967       -2.4804164236       -4.5321663213
  S        14.9552685319        1.4932778886       -6.9067058363
  C        14.3043711467       -1.6079288398       -6.8830111132
  H        14.4809666961       -2.6707822785       -6.5746655126
  H        15.1958150208       -1.2436623238       -7.2498736281
  C        13.1116930660       -1.3749088508       -7.8926982540
  H        13.4864036249       -1.0851182410       -8.8197383988
  H        12.5185145330       -0.5653875268       -7.5456582325
  H        12.4960876317       -2.2242639165       -7.8999839859
