352
 i =    24500, time =    12250.000, E =        96.0884118027
  H        10.5831847756        4.4907905537       31.6678025898
  C        10.4509960527        5.4928411929       32.1236496856
  H         9.4395793930        5.6357113617       32.2653464605
  C        10.9360548578        6.6546036881       31.1150305219
  C        11.2563426576        5.4759363271       33.4027688313
  C        11.4320053218        5.9685910511       29.8116472336
  H        10.1003881123        7.1974856578       30.8261904901
  H        11.6444946693        7.4172223226       31.5026240988
  H        10.5734890584        5.0340060661       34.1422479533
  H        12.1229165644        4.7294140313       33.1735639960
  H        11.5293371669        6.5263538877       33.8479238519
  C        10.3219051122        5.7877406285       28.8066398986
  H        12.1243895193        5.1297619937       29.9434547541
  H        12.0824207883        6.7520940671       29.3938496619
  C        10.8440830224        5.5418698840       27.3881244053
  H         9.7461896408        4.9515989740       29.1862991901
  H         9.5398210904        6.6210296916       28.8631934291
  C         9.8070823320        4.8904666462       26.4584435313
  H        11.7293472821        5.0269773778       27.4396543845
  H        11.1465522327        6.5283181767       27.0393715296
  C         8.7023778898        5.9393097195       26.1092824855
  H        10.2027786540        4.4733115499       25.5408701511
  H         9.3648722616        3.9654018879       26.8951775913
  C         7.5120400634        5.2613067472       25.2915273240
  H         8.2226908759        6.2176015220       27.0726855566
  H         9.1561627957        6.7846349642       25.6289966360
  C         7.1642491735        3.9080390753       25.9500804259
  C         7.9011510351        4.4889280581       23.9849015117
  C         6.1110152279        6.1241369516       25.2051714408
  C         7.4358628287        2.7951826051       25.1863333488
  C         6.7527110940        3.4986052087       27.2745375802
  C         7.8031492276        3.1341902218       23.8901537797
  C         8.2656146258        5.0509535842       22.7947015552
  H         6.2955818914        6.8541984009       24.4305431684
  H         5.9833653692        6.6854595543       26.1450758679
  C         4.9240606020        5.2522146113       24.8738867752
  S         7.2946909867        1.2747184638       25.9663573783
  C         6.7238699152        2.0733666362       27.3776529384
  H         6.6006520973        4.2008287162       28.0328928454
  C         8.1027058284        2.4002653279       22.7791493742
  H         8.3219910345        6.1250553067       22.8165651128
  C         8.6008445476        4.3604032238       21.6563873061
  H         5.1611198132        4.6492889401       23.9828783534
  H         4.7242344794        4.7182035562       25.7687418702
  C         3.7416179559        6.1120825010       24.5432880854
  C         6.3614736429        1.4010685763       28.6965895066
  C         8.5508016463        2.9863429418       21.5648660610
  H         8.0742639552        1.3314381568       22.8342968360
  C         8.9171534624        4.7125902825       20.3440203549
  H         3.2657794723        5.6205175610       23.8161065995
  H         3.9858872140        6.9963364749       24.0068655523
  C         2.9761653309        6.4787720060       25.8237696868
  C         6.3452145135       -0.0079168728       28.8778554609
  C         5.8295891555        2.1613428401       29.8228422963
  C         8.8650425438        2.2447740525       20.3488477351
  C         9.1576975794        3.5657184805       19.5769465130
  S         9.2282827483        6.1928200350       19.5749545739
  H         2.3513898895        7.2821086496       25.5811320723
  H         3.6814156796        6.8857570043       26.5342475970
  C         2.2071515491        5.4630978116       26.5505478971
  N         6.7626505887       -0.9313501455       27.9228932417
  C         5.9524226173       -0.5477040503       30.0619595263
  C         5.4882909346        1.5873894671       30.9885150236
  H         5.6098053501        3.2074762149       29.7830446565
  C         7.7400289041        1.4693712092       19.7417256515
  C        10.1109888251        1.3969225304       20.5941449587
  C         9.5358968312        3.9051337497       18.2680875498
  C         9.5896877094        5.2428410540       18.1105402083
  H         1.5961710406        4.9493540275       25.8082996213
  H         2.9109634478        4.7461872557       26.9488005831
  C         1.3355621266        6.1316151478       27.7115066901
  S         6.5184005114       -2.4825996110       28.5711672203
  N         6.0513043252       -1.9535932695       30.0550186356
  C         5.6723531326        0.1853119385       31.2186240875
  H         4.9934051756        2.2644698297       31.7019894842
  H         7.4812670071        0.6804897075       20.4944051493
  H         8.1199531251        0.8375130247       18.9301090629
  C         6.4656145692        2.3024887586       19.4714606183
  H        10.4409867228        0.9177074134       19.6338145810
  H         9.7397878906        0.5446538938       21.2950285840
  C        11.3083512246        2.1595698232       21.2316820810
  H         9.8412452405        3.1026651807       17.5731762202
  C         9.9593440816        6.0405368868       16.8821654642
  H         0.2554587807        6.1691767900       27.3784639934
  H         1.8245289077        7.1266666661       27.9441209422
  C         1.5221458402        5.2391171044       28.9606305506
  C         5.2538790474       -0.5327221018       32.3784476066
  H         6.5948547757        2.9407876718       18.6520627382
  H         6.2820188070        2.8847899775       20.3617306091
  C         5.2365392555        1.3892194720       19.2287404555
  H        10.9700069554        2.4747790223       22.2299002101
  H        11.5740519689        3.1592910921       20.7821352541
  C        12.6055252468        1.3746849639       21.3473443926
  C        10.0009393174        7.4193247754       16.7717212802
  C        10.2588254833        5.2231272024       15.6469017433
  H         0.8958404380        4.3277775142       28.9342090671
  H         2.5146871066        4.7969753717       28.8679252552
  C         1.3257597580        5.9950060268       30.2015487310
  H         5.3286815301       -1.6126633499       32.3195267813
  C         4.8728274206       -0.1471025311       33.6275261820
  H         4.9101540980        0.9116636578       20.1022626494
  H         5.4386793156        0.5264500956       18.5503032133
  C         4.1232013163        2.2203840612       18.5683787909
  H        12.5413804012        0.5921944398       22.1095634029
  H        12.7552307629        0.9159276532       20.3771872352
  C        13.7242015960        2.3102919022       21.9075032919
  N         9.7343331360        8.3581803038       17.8096494644
  C        10.3282550170        8.0785169335       15.6180142042
  C        10.5288410189        5.8971473518       14.4619582097
  H        10.1228342194        4.1339302932       15.5758669022
  H         0.3249773541        6.2783236654       30.2361373858
  H         1.3934512394        5.3422948431       31.0662992484
  H         2.0335352605        6.7521023996       30.3531182801
  S         4.5489305960        1.4910723619       34.1205463180
  C         4.8733704865       -1.1881633198       34.7140706901
  H         4.0731489798        3.1470202825       19.1538758536
  H         4.4300671384        2.4645899212       17.4992995903
  C         2.7860416939        1.4381565886       18.5177296806
  H        13.2616607334        2.9643705122       22.6908591027
  H        14.0942455815        3.1364493475       21.3535398331
  C        14.8974734908        1.5502286144       22.5350638502
  S         9.9099309273        9.8715948795       17.1748881856
  N        10.3938525042        9.4282196298       15.6691689335
  C        10.6361354360        7.3824406393       14.3968620113
  H        10.6376205495        5.2836227314       13.6124728370
  C         4.4814590439        0.7945574642       35.7537636315
  N         4.4687478076       -0.5653102594       35.8196843163
  O         5.0299130948       -2.3795257774       34.5490732675
  H         1.9434593156        2.1164493329       18.3735243001
  H         2.5824143292        1.0739911944       19.5197188758
  C         2.7119393126        0.2500580072       17.6550510754
  H        14.5002989499        1.1338651098       23.4628162304
  H        15.3921275387        0.8099350683       21.9478655934
  C        15.8809063565        2.5732140063       23.1179487521
  C        11.0293120726        8.1069394748       13.2469479294
  S         4.1186836933        1.7556684006       37.2777809364
  C         4.3499878251       -1.1931744270       37.0678492703
  H         2.2317148261        0.4817458638       16.7643578880
  H         3.7263235282        0.1456034832       17.1622519225
  C         2.3330259077       -1.0280923974       18.2916454492
  H        15.3713876867        3.0387660328       23.9666669318
  H        15.9986270820        3.4347771659       22.4267403192
  C        17.1447091873        1.8796588147       23.7169259404
  H        10.5235534206        9.0732762690       13.1386886935
  C        11.6844697947        7.9280018427       12.0748784509
  H         3.5529823100       -0.8439548990       37.7227330609
  H         3.8621320540       -2.1233553400       36.7111093711
  C         5.7522736867       -1.3692537581       37.7344561937
  H         1.2569821426       -1.0790034880       18.4811925217
  H         2.8129247226       -1.1562182285       19.3194372440
  C         2.5869222880       -2.2587942279       17.4504981979
  H        17.5074492511        2.3907430804       24.6415716131
  H        16.7674317931        0.9293989068       23.9870086529
  C        18.3208214696        1.6923437782       22.7579672211
  S        12.4455243240        6.4455338721       11.6501627909
  C        11.6318981543        9.0356895236       11.0453386794
  H         6.0854925343       -2.4118626869       37.6903994520
  H         6.4642825619       -0.7105522776       37.2516590099
  H         5.8670064785       -1.1199555924       38.8051369392
  H         2.0619868169       -3.1532913529       17.8173631035
  H         3.6070140438       -2.4418871283       17.2590422026
  H         2.1981454971       -2.0813873064       16.4469875166
  H        17.9671576173        1.1940866519       21.8535805672
  H        19.0756072939        1.0246272544       23.1155961502
  H        18.6333807285        2.6810622049       22.5612361730
  C        12.6394076411        7.2648696260       10.0078088708
  N        12.2787729919        8.6027186450        9.9512697063
  O        11.1250628178       10.1740498028       11.2403843201
  S        13.3118735089        6.4016089832        8.5778854676
  C        12.2888216634        9.3662420127        8.7461188927
  H        12.3285281529       10.4432327206        9.0460733015
  H        13.2046148413        9.2935352857        8.1813601816
  C        11.1210530990        9.1600300402        7.7891510371
  H        11.3044153159        9.5573899453        6.8167147307
  H        10.9615672994        8.1601477846        7.7654572057
  H        10.1714637941        9.5247398522        8.0437795738
  H         5.3023416627        1.5028331176       12.7926589795
  C         4.5890502089        2.3188527452       12.9871325843
  H         5.1660001872        3.2195428200       12.9773267968
  C         3.5709161607        2.4713800617       11.8425831882
  C         3.7714318050        2.0775884610       14.2361639955
  C         4.1687733192        2.6025343988       10.4657944757
  H         3.0801671640        3.4339936583       12.1642710575
  H         2.7932308144        1.6401090818       11.7407124839
  H         3.4713751819        1.0551897550       14.3599702191
  H         2.8358431712        2.6932974798       14.2735188652
  H         4.3725001110        2.4280262726       15.1005819484
  C         4.9611115392        1.4051569751        9.9008291609
  H         3.4858853427        2.8773884561        9.6773442464
  H         4.8772489211        3.3937043801       10.4216536820
  C         5.4581805909        1.6560979165        8.4767184371
  H         4.3396657605        0.5151758278       10.0196412865
  H         5.7520434773        1.2453010572       10.6036707232
  C         6.7061745950        2.5070172954        8.3044936230
  H         4.5396069618        2.1118790832        8.0165670066
  H         5.4497748160        0.7038139594        7.8863674947
  C         7.9410849322        1.7808292064        8.7875606259
  H         6.8259956442        2.7804931190        7.2969793058
  H         6.5790443385        3.4979649771        8.7758934813
  C         9.1723331357        2.6652102941        9.1563408133
  H         8.2822066817        0.9906892530        8.1202054404
  H         7.6406076278        1.1819671675        9.6017707956
  C         8.6856502503        3.9643364867        9.8846360969
  C         9.6039043630        3.3817067319        7.9085593596
  C        10.4122927676        1.9537767963        9.8337664153
  C         9.0322698025        5.1040755650        9.1289207847
  C         8.2465327045        4.3751059979       11.1777390867
  C         9.4872806521        4.7201363484        7.8710889173
  C        10.0309342766        2.7682403903        6.7517396206
  H        10.0683930857        1.4696439271       10.7017797998
  H        10.9028151015        1.2146846067        9.1391503319
  C        11.5892425363        2.8795215837       10.1460895845
  S         8.6878023109        6.5562104177        9.8954657111
  C         8.1293928960        5.7104357257       11.2786102375
  H         7.8806129716        3.5991845195       11.8510875992
  C         9.8150728936        5.3963091830        6.6981658547
  H        10.1941270025        1.6838745707        6.8470227118
  C        10.3614866611        3.4084173940        5.5890615137
  H        11.2896387558        3.7396186227       10.7101536047
  H        12.0849316137        3.0936110973        9.2126544454
  C        12.6846181914        2.2603345568       11.0425420865
  C         7.6338657602        6.4291706864       12.4979028497
  C        10.2634341662        4.7801897305        5.5011862281
  H         9.7112832323        6.4539068379        6.6657085995
  C        10.8378112674        3.1052937905        4.3412138090
  H        13.6383004863        2.7961216196       10.9652646562
  H        12.8501488424        1.2600101441       10.6546280062
  C        12.3283252889        2.1950037143       12.5767422456
  C         7.6474442881        7.8190817943       12.6826861667
  C         7.2402253038        5.5982732485       13.6278198091
  C        10.7180708719        5.5082284862        4.2068247341
  C        10.9922674880        4.1934002906        3.5143303268
  S        11.2470807658        1.5892198470        3.6216005178
  H        12.0981917305        3.1999507487       12.9402083610
  H        11.4707069371        1.6337743069       12.7188143775
  C        13.4543639097        1.6701274669       13.3698788952
  N         7.8985280477        8.7510155292       11.6798515255
  C         7.3561454235        8.4022582684       13.8841311262
  C         7.0191134929        6.2191241082       14.8791128940
  H         7.0710993825        4.5417399583       13.4557817173
  C        12.0282701106        6.3782148060        4.3565364621
  C         9.5744386519        6.3501901926        3.5276573178
  C        11.4465902101        3.7610354598        2.2485367826
  C        11.5215915721        2.4141043782        2.1482084480
  H        14.0991805712        2.4736609213       13.7093824559
  H        14.1816214866        1.1058157168       12.7748443837
  C        13.0003148847        0.9201643963       14.6089794723
  S         7.6086799623       10.1927940247       12.2627231147
  N         7.4172103387        9.7827685438       13.8041778114
  C         7.0960834414        7.6881359663       15.0816902550
  H         6.7771396391        5.5736544290       15.7399408655
  H        11.9622216398        7.1883207792        5.0610524429
  H        12.2125881185        6.8076759362        3.3558705412
  C        13.2798010118        5.5347526847        4.6859187222
  H         9.0456754806        7.1188802338        4.1507376122
  H        10.0572365967        6.9151176074        2.7644011170
  C         8.5226229949        5.6027253923        2.7371559507
  H        11.5432647936        4.5014824426        1.4229750671
  C        11.7780624412        1.5944448371        0.9098307191
  H        11.9551899109        0.5084709181       14.5897097329
  H        13.7014457539        0.1959255810       14.8912307850
  C        12.9291342752        1.8630412109       15.8375463995
  C         6.8517828524        8.4105879897       16.3306938972
  H        13.1355588769        4.7972102433        5.5082433548
  H        13.4637787694        4.7635873120        3.9538617042
  C        14.4677496898        6.3520669209        5.1268291187
  H         8.0116347192        4.8726381766        3.3332409636
  H         9.1110081445        5.1891466782        1.9083588640
  C         7.4959110660        6.5207058456        2.0804684186
  C        11.8908981716        0.2126471200        0.7819879765
  C        12.0657647667        2.3777340013       -0.3454392142
  H        12.2581649635        2.7433915052       15.7998755184
  H        13.8991955778        2.3300038144       15.8596246787
  C        12.6322253908        1.1291152427       17.1931520388
  H         6.9466165031        9.5160058499       16.2784229545
  C         6.4279650946        7.9712233870       17.5790103390
  H        14.1380189462        7.0890487181        5.7771095007
  H        14.7957583289        6.8137928868        4.2117185938
  C        15.4972428787        5.4029820033        5.7597419367
  H         7.1132288932        7.3450631700        2.6420046491
  H         7.9606111550        6.9974563317        1.1597790572
  C         6.3876056494        5.6270692598        1.4748429480
  N        11.6272358266       -0.8068188792        1.7677897180
  C        12.2305254293       -0.4334458693       -0.4127789089
  C        12.2883249242        1.8102357678       -1.5802359460
  H        11.8530093061        3.4421421247       -0.2765187032
  H        11.5800805474        0.6165748987       17.1264200278
  H        12.7854916690        1.7863240742       18.0906582070
  H        13.2679363683        0.1986787363       17.2720095350
  S         6.1003321460        6.3922061506       18.0963749784
  C         6.4480728339        9.0263452073       18.6474226612
  H        15.0480004286        4.9158652768        6.6219020963
  H        15.9354078118        4.6649822298        5.0861264735
  C        16.7876612271        6.1959476696        6.1569367511
  H         5.7458927459        5.3035413659        2.3148856391
  H         6.8042673805        4.7801875353        0.9902507258
  C         5.5173687309        6.4628193908        0.5188679843
  S        11.8292514435       -2.2935985445        1.1459164966
  N        12.3552459787       -1.8353151224       -0.3533313024
  C        12.3945609034        0.2824756630       -1.6428538912
  H        12.1961286859        2.4343758090       -2.4533048791
  C         5.9737202990        7.0849159791       19.7465511293
  N         6.1908072992        8.4304618232       19.8131550706
  O         6.5658702293       10.2473689077       18.4091962780
  H        17.2589871957        6.5593908301        5.2505364741
  H        16.4585160082        7.0282735087        6.7790623057
  C        17.7414052548        5.2829930305        6.9331279591
  H         6.1094188010        7.0450217906       -0.2028588281
  H         4.9309777067        5.7937514258       -0.1911124581
  C         4.5619184248        7.2883782624        1.3664464996
  C        12.6316306853       -0.5314076520       -2.8067533909
  S         5.5370123728        6.2774210278       21.3006369295
  C         6.3029381186        9.1397302296       21.1157150591
  H        17.3436819777        5.0347724363        7.9476820015
  H        17.8261206969        4.2426402017        6.5523603360
  C        19.2260095122        5.9549309063        7.1262687417
  H         4.7795389276        7.2444545990        2.4531048997
  H         3.6217913234        6.7389132139        1.4771379730
  C         4.5156637509        8.7924883894        0.8706022589
  H        12.3902355674       -1.5735813299       -2.8303892537
  C        13.1054145607       -0.1453437410       -4.0265959598
  H         5.5479267999        8.9582813979       21.8632294709
  H         6.0421985263       10.2062114379       20.9733642438
  C         7.7764687814        9.0725896752       21.5464091773
  H        19.8142160552        5.3783632391        7.8095178151
  H        19.2558390991        6.9082985015        7.6265283597
  C        20.0805094808        6.0629433075        5.8219787536
  H         5.4148033240        9.3809310203        0.9757175898
  H         4.2160280392        8.7780620730       -0.1707156336
  C         3.3156516819        9.4776058294        1.4779506698
  S        13.6476542070        1.4593938546       -4.4016871134
  C        13.3563207573       -1.1716108549       -5.0146585572
  H         8.4487591384        9.6877112864       20.9102851621
  H         8.1028988211        7.9984166000       21.5914501019
  H         7.8733379462        9.4532241551       22.5313455990
  H        21.1210546887        6.2808311537        6.0659196513
  H        20.2243087039        5.1582374763        5.0779435273
  H        19.4893800739        6.9072231970        5.2719168503
  H         3.4630447063       10.5586458830        1.5178307908
  H         2.4846282945        9.3128762923        0.7445203485
  H         3.1452663042        9.0420215304        2.4115813597
  C        14.1209798392        0.7269751353       -5.9549305222
  N        13.9309916634       -0.5960408281       -6.1175099891
  O        13.1271127856       -2.3790783833       -4.8270395545
  S        14.7880885954        1.5583076376       -7.3443147558
  C        14.1686077989       -1.3311479865       -7.3909223627
  H        14.3791289167       -2.3567005579       -7.0171738735
  H        15.1411073983       -1.0338070865       -7.7704075580
  C        12.9939985359       -1.2152895785       -8.3827529210
  H        13.2895615938       -0.8783237787       -9.3598575351
  H        12.2932437965       -0.5409784539       -7.9161816890
  H        12.4852786694       -2.1247767092       -8.3273087783
