352
 i =    64700, time =    32350.000, E =        99.3873721835
  H        11.8922889463        5.2759510523       32.0267176557
  C        10.8474611287        5.3453796091       32.4802981010
  H        10.6922527442        4.2875021541       32.6140299405
  C         9.8668396065        5.8895038172       31.4211899988
  C        10.7049975296        6.0899234033       33.8065835878
  C        10.1018460196        5.4001187103       30.0115515227
  H         8.8631318384        5.7246119884       31.7884368430
  H         9.8827270929        7.0066530496       31.4114514144
  H        11.0391601816        7.0882530618       33.7960308138
  H         9.7779163284        6.2018563300       34.3121160355
  H        11.4827247675        5.5818440313       34.3761263340
  C         9.9871059113        6.3963065255       28.9435460715
  H         9.2888228338        4.6385590465       29.8455221422
  H        10.9964016057        4.8994013187       29.8243462379
  C        10.4579576019        5.9160821233       27.6316412624
  H         9.0686537715        6.9924003208       29.0514641770
  H        10.7140042435        7.1373486384       29.1930711616
  C         9.5348624877        5.2052596856       26.6919241714
  H        11.3128995059        5.3183260022       27.7615768419
  H        10.7764418036        6.9160546174       27.2369005305
  C         8.4409769154        6.0548425967       26.0104982059
  H        10.3108701616        4.9485108782       25.9512830094
  H         9.1597378443        4.2298631638       27.1369773270
  C         7.2897559656        5.2485493944       25.3139522903
  H         7.9635010591        6.6787756470       26.8055326815
  H         9.0332122785        6.7040562374       25.2662452763
  C         6.8517556500        3.9795073610       26.0278410004
  C         7.7363705592        4.5946871790       24.0729698706
  C         5.9929464481        6.1861713539       25.1500040550
  C         7.0010461914        2.8693623860       25.2249317846
  C         6.4582984305        3.6573891057       27.3452280945
  C         7.5647840806        3.2732591822       23.9872128706
  C         8.2761193064        5.1883380316       22.9067130005
  H         6.3007259743        7.0362974666       24.4489285539
  H         5.7356136682        6.6394399803       26.1248895947
  C         4.7555079556        5.4308432186       24.6081704023
  S         6.4746099885        1.4320993099       25.9939043405
  C         6.1580795363        2.3195212563       27.4358456893
  H         6.3621845669        4.4791366408       28.0538515283
  C         7.9258958937        2.6058336165       22.8048975330
  H         8.2290788325        6.2768664029       22.9133173859
  C         8.6339908967        4.5308025263       21.7561884173
  H         5.0147052087        5.2198861907       23.6055671634
  H         4.6208181092        4.4216586582       25.0177431995
  C         3.5452193324        6.3030727086       24.4993302377
  C         5.8475791637        1.5880906076       28.7203763908
  C         8.5340890253        3.1850940184       21.6633244267
  H         7.8096979640        1.5440804372       22.7426065460
  C         9.0284748477        5.0869395079       20.5662237595
  H         2.9394019493        5.9800196256       23.6573315260
  H         3.7443128039        7.3199518399       24.1005132153
  C         2.8101047355        6.4362870575       25.8551731441
  C         6.0190459173        0.2407908489       29.0415464545
  C         5.1895344019        2.3576104759       29.8365993364
  C         8.8947080421        2.6112909292       20.3007691045
  C         9.0965075628        4.0316566834       19.6978506293
  S         9.3849242103        6.5524809387       19.9278242155
  H         2.1661549282        7.2997361263       25.7130745713
  H         3.5465881807        6.8630553846       26.5392388063
  C         2.0952018247        5.1042690404       26.3247273991
  N         6.5713764008       -0.6649734831       28.0888592882
  C         5.7432778734       -0.3834392978       30.2373839494
  C         5.0648045648        1.8328897184       31.1231344486
  H         4.8817426476        3.3604872803       29.7092906484
  C         7.7752445132        1.7703714843       19.6330632545
  C        10.1456290169        1.7648506759       20.5015141908
  C         9.4930410032        4.4319388930       18.4261087921
  C         9.6768467812        5.7597753479       18.4299569114
  H         1.3568927272        4.8145808049       25.5962024263
  H         2.6665953444        4.1770221775       26.3641365276
  C         1.2431910734        5.3929654055       27.5489241786
  S         6.2494081736       -2.1494953279       28.6511226690
  N         5.7946268620       -1.7842531430       30.1910545462
  C         5.4290124895        0.3920128046       31.3722038754
  H         4.6966222199        2.4615381703       31.9459672360
  H         7.6364345584        0.9019598612       20.2168903309
  H         8.1633945104        1.3184908893       18.6847323883
  C         6.5062634709        2.5544467087       19.5420546275
  H        10.4477879005        1.4758721646       19.4869872311
  H         9.9636028114        0.8802535330       21.0869064824
  C        11.3172642000        2.5178044195       21.1297492397
  H         9.5801637802        3.6638403552       17.6620862097
  C        10.0631993953        6.4867403474       17.1735204750
  H         0.4635509216        4.6552691182       27.7503923529
  H         0.6388190374        6.2595181098       27.4585704143
  C         2.1401403595        5.6235613485       28.7746409845
  C         5.2552786784       -0.3050533674       32.6323009993
  H         6.6855767224        3.3623259119       18.8302793883
  H         6.2673776313        3.0409168525       20.5097084649
  C         5.3537539388        1.6845698901       19.0170757128
  H        11.0569772744        2.9286035906       22.0743226711
  H        11.7305413215        3.3505443375       20.5278348150
  C        12.3807821648        1.4430577056       21.2951918450
  C        10.0838102416        7.8730133567       17.1072207775
  C        10.2434614133        5.7160332026       15.8529846517
  H         2.8707054883        4.8180198308       28.8890244158
  H         2.7672209968        6.5277483287       28.6946395112
  C         1.3577158442        5.7409280623       30.0935487647
  H         5.5781811579       -1.3265901875       32.5981325267
  C         4.9320897607        0.0785255373       33.9263928311
  H         4.6916748458        1.4248069483       19.8096105838
  H         5.5848464294        0.7811919623       18.4807967786
  C         4.4332324014        2.4874022409       18.0805795231
  H        12.1033224965        0.7758502121       22.1067801424
  H        12.2864953254        0.7080113902       20.4555672007
  C        13.7814146041        1.9583429744       21.5260148034
  N         9.9115672673        8.7318282999       18.1488020692
  C        10.2724884382        8.5888998945       15.8969042444
  C        10.3825144189        6.4440282050       14.6355041845
  H        10.0143490118        4.6383873314       15.6966838753
  H         1.0494156892        4.7406991735       30.4690977403
  H         1.8849716721        6.2519721052       30.9536982578
  H         0.4478436699        6.3462704655       30.0021540749
  S         4.4536682599        1.6175448862       34.4428332159
  C         5.0960456472       -0.9659065890       35.0156124853
  H         4.2012842006        3.4411526746       18.5652844088
  H         5.0031690399        2.6740610679       17.1595148987
  C         3.1541756055        1.8062924582       17.7540372659
  H        13.9042215235        2.7818924155       20.8054313503
  H        14.4823795290        1.1939829516       21.2468275666
  C        14.0265914209        2.3612784328       22.9925009620
  S         9.9204864971       10.2369730195       17.6106870497
  N        10.0770459249        9.9751428162       16.0474955983
  C        10.3834216167        7.9470499231       14.6305986961
  H        10.5143652821        5.9135202254       13.7005484064
  C         4.2631737425        0.8294242753       36.0433860796
  N         4.6085110502       -0.4729955815       36.1633530851
  O         5.3430835317       -2.1266637814       34.8342211280
  H         2.5681861062        2.4629561553       17.0474121119
  H         2.5610605562        1.6351099055       18.6522752009
  C         3.2834917522        0.5202202324       17.1082037580
  H        13.1528263534        2.7186900508       23.5059963198
  H        14.3258445250        1.4867511124       23.6261047939
  C        15.0829057974        3.4676494112       23.0723842295
  C        10.6486500566        8.8011339825       13.4963065077
  S         3.6813341522        1.5823129594       37.5124231836
  C         4.7535653858       -1.2860520377       37.3674319717
  H         2.5387302772        0.5334786741       16.2686186493
  H         4.2685114753        0.3258702749       16.6890332395
  C         2.8116453114       -0.6360382094       17.8941994031
  H        15.2703393265        3.6476758741       24.1927613185
  H        14.6928648727        4.4121899910       22.7876023924
  C        16.4888345110        3.1780276603       22.4690383238
  H        10.2578562166        9.7897528546       13.5291897052
  C        11.1443049490        8.5161672353       12.2248298628
  H         3.9900103132       -1.0415619037       38.1141656765
  H         4.6913085001       -2.3504606462       37.2670261305
  C         6.1322237711       -0.9843575850       37.9130675266
  H         2.9792874730       -0.5234152848       18.9511759916
  H         3.3815624330       -1.4543077144       17.5777818372
  C         1.2677817605       -1.0058112709       17.6191756583
  H        16.4207526863        2.8002209527       21.3826502587
  H        17.0476882527        4.1274501269       22.5670159264
  C        17.3618174690        2.1607745160       23.1762940889
  S        11.7924009096        7.0044085812       11.6639300955
  C        11.2454012318        9.6455628078       11.2621042522
  H         6.4307819536        0.0646204604       37.7705674320
  H         6.2942940632       -1.3061042033       38.9812526348
  H         6.9298940193       -1.5342017998       37.4232247497
  H         0.9460519144       -1.8969951961       18.0929067651
  H         0.9903559456       -1.1678737020       16.6013496677
  H         0.5934252191       -0.1667349070       17.8874855904
  H        16.8614351061        1.1806973641       23.1935235838
  H        17.8325015363        2.4117803646       24.0888287380
  H        18.1186443878        1.9873497548       22.4649023152
  C        12.0472353196        7.8390362098       10.1377671160
  N        11.8327484702        9.1906087960       10.1134008021
  O        11.0228971675       10.7881763307       11.5248955324
  S        12.6794435082        7.0236924512        8.7210983971
  C        11.9859878160       10.1385691279        9.0233215771
  H        12.2059859237       11.1509976594        9.2951472122
  H        12.7921680736        9.6941066032        8.3968137293
  C        10.5875228743       10.0214182659        8.3065858734
  H        10.6139137565       10.6072321088        7.3798004177
  H        10.4160890852        9.0046935289        8.0157882758
  H         9.6942415874       10.4569969473        8.8555462245
  H         4.2414265989        1.2500205561       12.3519531054
  C         3.6085677513        2.1402931761       12.2473388892
  H         4.2759739199        2.9830996431       12.2343924564
  C         2.7062824409        2.2361043715       11.0400885758
  C         2.9193218763        2.3011501048       13.6177797173
  C         3.5508779303        2.5604818927        9.7340655096
  H         1.8052309925        2.9144828183       11.2954377764
  H         2.1486856426        1.3247003799       11.0188949836
  H         3.5688554055        2.6211655158       14.3758897276
  H         2.4093500380        1.4022665918       13.8260536751
  H         2.1749521264        3.0686413161       13.6554970582
  C         4.7561341409        1.6245853717        9.5495923412
  H         2.9566034875        2.4609019174        8.8440460341
  H         3.8127133077        3.6791987352        9.5520073705
  C         5.5537208704        1.8540168341        8.2915993521
  H         4.3014811549        0.6291602010        9.5679988855
  H         5.3891929028        1.6410301271       10.4180541745
  C         6.6255818773        2.8273874386        8.5256129002
  H         4.9264156848        2.1806300139        7.4762593812
  H         5.8899709100        0.9071559519        7.9014284889
  C         7.9187550401        2.2713925622        9.0096740335
  H         6.9214192282        3.3960251145        7.6141591396
  H         6.1782668138        3.5348721457        9.2527168762
  C         9.1061815932        3.2899643106        9.2151676501
  H         8.2394597023        1.4356121747        8.4129813045
  H         7.6473363594        1.7581140284        9.8926970940
  C         8.6266282720        4.6145917925        9.7884743890
  C         9.5542860561        3.9709025549        7.9677954905
  C        10.2151824105        2.6668895717       10.0561840933
  C         8.8374592957        5.7000441912        9.0017055124
  C         7.8784063492        4.9989974521       10.9102752977
  C         9.3377103290        5.3026401295        7.8051466799
  C        10.0708147656        3.3048318880        6.8553231405
  H         9.8904482059        2.2773224349       10.9725754564
  H        10.6115533110        1.8295303526        9.4539096720
  C        11.4714778947        3.5492785520       10.1407422330
  S         8.1751299999        7.2111621309        9.5932169501
  C         7.7320936194        6.3460439100       11.0154141918
  H         7.6311361222        4.2341685477       11.6531133860
  C         9.7719662983        5.9512072912        6.6756953804
  H        10.2529805134        2.1968670628        6.9698300195
  C        10.4457493048        3.9500743469        5.7230797762
  H        11.2107030189        4.5506810910       10.4502771992
  H        11.9547735747        3.6597717052        9.1886147253
  C        12.5277753581        3.1013227223       11.1377211666
  C         7.2973991683        7.0109733123       12.2746179724
  C        10.2738517160        5.3056980355        5.5490851085
  H         9.6570789872        7.0680482625        6.6347539386
  C        10.8413000952        3.5365365718        4.4695373903
  H        13.3964185522        3.6510390771       10.8839833258
  H        12.8705150147        2.0474232050       10.9041888104
  C        12.0206494003        3.2056578788       12.5403113669
  C         7.3209947790        8.4442223835       12.5545582808
  C         7.1395733935        6.0895444335       13.4793362907
  C        10.8086580138        5.9845740916        4.3691035335
  C        10.9901361777        4.6796329682        3.6471851752
  S        11.0649409398        2.0171996934        3.7280361437
  H        11.6883665591        4.2079205461       12.7624612403
  H        11.1805136185        2.4849579206       12.7821092816
  C        13.1104738190        2.8431002726       13.5524226924
  N         7.6884894046        9.4192906219       11.6084072693
  C         7.1355941830        8.9756103142       13.8355129967
  C         6.9522673838        6.6739393944       14.7257493217
  H         6.9631386404        5.0087157531       13.3884585581
  C        12.0532188817        6.7637755197        4.6586798569
  C         9.7089021160        6.8526124409        3.7778685168
  C        11.4819385379        4.2201692778        2.3867023545
  C        11.4696562310        2.8471484787        2.2600153279
  H        13.6369974581        3.7971598485       13.7502228329
  H        13.6365079837        1.9918527583       13.1350381969
  C        12.4845968247        2.3355847517       14.7978349581
  S         7.4996363699       10.8486015281       12.3472432263
  N         7.2620826181       10.3015535672       13.8772696650
  C         6.9083027746        8.1515878461       14.9642246216
  H         6.6542023462        5.9954088924       15.5128576440
  H        11.7521094957        7.4605618507        5.3487731168
  H        12.2537778771        7.4016994775        3.7390548779
  C        13.1986181222        5.9179882981        5.1461204822
  H         9.4689845161        7.7181090139        4.4419627482
  H        10.0833508435        7.2038890907        2.7895625726
  C         8.4372731028        6.0384222067        3.4500575258
  H        11.4897748563        4.9517256159        1.6314004335
  C        11.7153437257        2.1681611360        0.9311511096
  H        11.5584733796        2.7555248417       15.1379396822
  H        12.2568192006        1.2808566887       14.7771863666
  C        13.3859897911        2.5317933494       16.0109620988
  C         6.7104947488        8.7614073292       16.2231534806
  H        12.9807267249        5.4698091553        6.1433090452
  H        13.5019055349        5.1271360632        4.4054892220
  C        14.5382632196        6.5918602735        5.2382429765
  H         8.0536748068        5.5023450952        4.2853675528
  H         8.6029630800        5.3219186072        2.6342900173
  C         7.3790798846        7.0333887321        2.8826626644
  C        11.6837963998        0.7775714993        0.7602085803
  C        11.9495230903        2.9348900664       -0.3392616344
  H        13.9967392602        3.4041928489       15.8836979743
  H        13.9878742510        1.6075431890       16.0717577355
  C        12.6076924282        2.6880462987       17.3450096471
  H         7.0193634058        9.7841550056       16.3266481232
  C         6.5370804264        8.2270661471       17.4815754031
  H        14.5434989578        7.6689019710        5.4614174000
  H        14.8780897265        6.5461275751        4.2057872081
  C        15.4674128951        6.0143047296        6.2750225377
  H         7.0734613754        7.7246660902        3.6586923813
  H         7.8410451888        7.7626992657        2.2363324311
  C         6.1240952051        6.2658192952        2.2385574105
  N        11.5379869666       -0.1926784465        1.8135472815
  C        11.9857268505        0.1896644905       -0.4506952042
  C        12.0658643197        2.3350227104       -1.5425699549
  H        12.0717347815        3.9568355942       -0.2496699471
  H        12.3229686533        3.7312993622       17.4895342625
  H        13.1871787453        2.2893526577       18.2387297894
  H        11.7279164191        1.9922096551       17.5018459024
  S         6.4592989869        6.5192981647       17.7918090896
  C         6.3528960503        9.1385725262       18.6855886755
  H        15.2847870000        6.3880886091        7.2122199736
  H        15.3429966399        4.9380112782        6.4803819469
  C        16.9316400996        6.0923944950        5.9377585732
  H         5.6531969753        5.7496188338        3.0737847822
  H         6.4078786402        5.6242889246        1.3968358022
  C         4.9959395816        7.2101862605        1.6909919297
  S        11.9134679222       -1.7341281397        1.2463137868
  N        12.0298030510       -1.2619480534       -0.3335816895
  C        12.0954840609        0.8839762678       -1.7065472795
  H        12.2818784706        3.0252883673       -2.3562848313
  C         6.0269169198        7.0327773635       19.4647715847
  N         6.0643803758        8.3578820446       19.7317194907
  O         6.3462915119       10.3662082308       18.6301176122
  H        17.0781393064        5.3112064805        5.1808273191
  H        17.0859711660        7.0598056914        5.4818333498
  C        17.8900390693        6.0124331708        7.1415476705
  H         5.3138505526        7.5232432051        0.6871152012
  H         4.1449321830        6.5832507476        1.5020724275
  C         4.7435762650        8.4770394598        2.5842393271
  C        12.4742892980        0.1470453934       -2.8836386054
  S         5.4474790137        5.9589133136       20.7098693183
  C         5.8507938656        8.9171293495       21.0812147598
  H        17.6877521344        6.8047239623        7.8873965463
  H        17.7835715908        5.0442970546        7.5663566982
  C        19.3468121553        6.0695694387        6.7794017505
  H         5.5486524983        9.1918972001        2.5552626790
  H         4.6029974220        8.1639677681        3.6584257504
  C         3.4182879056        9.1660269050        2.1276023229
  H        12.0463851661       -0.8914580980       -2.8363580310
  C        13.0796273299        0.4318562014       -4.0806778685
  H         5.3313960383        8.2681772319       21.7554303893
  H         5.2536648837        9.8484813050       21.0162528418
  C         7.2827527733        9.1708865355       21.6700940785
  H        20.0899849927        6.1838908316        7.5960169368
  H        19.4638277013        6.9628935577        6.3326841185
  C        19.7536911531        5.0219461322        5.7445872200
  H         2.5268413511        8.4713963944        2.1769207017
  H         3.1311598492        9.9911417184        2.7905610243
  C         3.5503509651        9.7812154410        0.7057417415
  S        13.7571875702        1.9313308305       -4.5425020358
  C        13.0340637287       -0.5877662653       -5.1282745874
  H         7.9145156622        8.2591309548       21.4540468031
  H         7.3312195603        9.3861100996       22.6974647921
  H         7.8205681693        9.9315306347       21.1284420236
  H        20.8496381012        5.0030033398        5.6581630670
  H        19.3507576067        4.0309482752        6.0375870671
  H        19.4641825195        5.2698689632        4.8342579294
  H         4.5485693063       10.0968386665        0.5451982511
  H         3.3532708576        9.1226830742       -0.1688464915
  H         2.9010289284       10.6333531351        0.6160395032
  C        14.1030939417        1.1302519098       -6.1059954639
  N        13.7407486001       -0.1392538570       -6.2060671998
  O        12.6457013422       -1.7403433587       -4.9438694255
  S        15.1357634435        1.8270540470       -7.3071098318
  C        13.8799843128       -0.9656512060       -7.4240460480
  H        13.9257502204       -2.0056584961       -7.2226160433
  H        14.8419940942       -0.7456064533       -7.9406952975
  C        12.7574185854       -0.6392767938       -8.3084373626
  H        11.8241884181       -0.4812907830       -7.8037235073
  H        12.5381266216       -1.5673136681       -8.9864025459
  H        12.9510524148        0.1581045801       -9.0707819919
