352
 i =    21900, time =    10950.000, E =        95.8451429939
  H         9.4652779724        5.0448201647       31.5913144543
  C        10.0950916492        5.9002855549       31.7416012040
  H         9.5808368180        6.7013429860       32.2130264325
  C        10.7695575919        6.5362601388       30.5201600094
  C        11.0207656556        5.4555505555       32.8588930455
  C        11.7410125570        5.7145532004       29.7244548464
  H        10.0080513268        6.9225607710       29.8494082766
  H        11.2786774528        7.4083186089       30.9136638582
  H        11.4664013071        4.5471716309       32.6084119929
  H        11.7901001925        6.2521220390       33.0291882595
  H        10.4787704404        5.2187858223       33.7733279275
  C        11.0070045273        4.8327591170       28.7688432793
  H        12.2730319441        5.0957844393       30.4529672175
  H        12.4367771850        6.4443591260       29.2642529598
  C        10.8771758200        5.5971130666       27.4162091799
  H        11.6134617691        3.9838823456       28.5575064904
  H        10.0110481883        4.5212995280       29.0889342597
  C         9.8853567697        4.9236145364       26.5022358842
  H        11.9638885643        5.6218490793       27.0987385321
  H        10.6868929373        6.6629598847       27.7163068320
  C         8.5374229511        5.6448431547       26.4729768433
  H        10.2754283943        4.5667681687       25.5317031001
  H         9.6554430368        3.9459654425       26.8416205042
  C         7.4381409040        4.9565677133       25.6829036067
  H         8.1683021553        5.9250269717       27.4426525647
  H         8.7378867162        6.5943101840       25.9600493896
  C         7.0554124219        3.6612385345       26.3310835454
  C         7.8865065789        4.2800453503       24.4293680847
  C         6.2660001171        5.9326351716       25.3705368044
  C         7.3273946747        2.5255410176       25.5318777786
  C         6.5314645559        3.2390428880       27.5605359997
  C         7.8698167333        2.9011661337       24.2904428977
  C         8.3763895669        4.9722763854       23.3063141811
  H         6.6645700300        6.6832904868       24.7301197761
  H         5.9421315044        6.4761880580       26.2537428183
  C         5.0789120005        5.2330882210       24.7026903642
  S         6.8739028719        1.0551618542       26.2842739529
  C         6.3471622710        1.8926394540       27.7104790796
  H         6.0485594813        3.9085996418       28.2725110027
  C         8.2374591333        2.2960597707       23.1393667674
  H         8.4119117401        6.0207538155       23.2668812688
  C         8.7263008942        4.3116315455       22.1395074365
  H         5.4310647010        4.7716326497       23.8107828409
  H         4.8150439064        4.4735905725       25.3491888143
  C         3.7926130154        6.0040313469       24.3959483007
  C         5.7680368454        1.1786653559       28.9004074476
  C         8.7141891903        2.9192959398       22.0093003936
  H         8.2782103629        1.2228490869       23.1659167521
  C         9.0654574302        4.6947386830       20.8757624889
  H         3.0953047578        5.4926442784       23.7024283519
  H         4.1773680575        6.8878354468       23.9311894253
  C         3.0873063901        6.4145372493       25.6471659953
  C         5.7971759296       -0.2195840657       29.1686019341
  C         5.2606815341        2.0411531833       30.0762985256
  C         9.1393189914        2.1883514314       20.6950835885
  C         9.3230587750        3.5445605728       20.0738224304
  S         9.3308385638        6.1666415502       20.1487494889
  H         2.3111714024        7.1659051115       25.3645375936
  H         3.8385691199        6.8579673336       26.2385252843
  C         2.5055708743        5.3067570012       26.5317712883
  N         6.1264276286       -1.2117806895       28.1880479025
  C         5.5543116169       -0.7557280621       30.4256230806
  C         5.0484634648        1.4111393871       31.2898920098
  H         5.0951100515        3.0639764951       30.0460001901
  C         8.0293909530        1.4529289793       19.9956343583
  C        10.5257299797        1.4182995259       20.7074527654
  C         9.6635161285        3.9552307431       18.7956470995
  C         9.6839637295        5.3255309726       18.7119637143
  H         2.0778522407        4.4530101716       25.9718652446
  H         3.4148153850        4.9152389733       27.1241008959
  C         1.4663250667        5.8480034035       27.4981770811
  S         5.9761115508       -2.6637745839       28.8633667515
  N         5.7370157322       -2.1298613416       30.3815554947
  C         5.2085679107       -0.0650553379       31.5631073871
  H         4.7597347038        2.0359232978       32.1161764918
  H         7.8933043217        0.6096423543       20.5713884794
  H         8.4026729493        1.1330394849       19.0672036701
  C         6.7924523749        2.3356035135       19.6980272964
  H        10.9093203358        1.1811878415       19.7181894386
  H        10.5228181821        0.5655510143       21.3408037818
  C        11.7193269124        2.2746372598       21.2502165708
  H         9.8788595132        3.1690577944       18.0783296491
  C        10.0986291979        6.0799991980       17.5212869789
  H         0.7090374326        6.1775315093       26.8176031473
  H         1.8566705413        6.7093491690       28.1221496708
  C         1.0422795910        4.7948065813       28.4534256453
  C         5.1615923934       -0.7153637017       32.8460080177
  H         7.0083015494        2.9828096314       18.8663651953
  H         6.4252116075        2.8266199487       20.6370278610
  C         5.6116237977        1.5116562569       19.1164572843
  H        11.4250001933        2.4729085916       22.3156322989
  H        11.9638900767        3.2507515532       20.7666395813
  C        13.1009654931        1.5523245100       21.3221594190
  C        10.0991007922        7.5128853940       17.4068492799
  C        10.4634443532        5.3177053727       16.2701184261
  H         0.1134324780        4.3625591913       28.0682355419
  H         1.7495893117        3.9438225130       28.5099202866
  C         0.8283251305        5.3380124754       29.8806562354
  H         5.3880679700       -1.7970992870       32.8399352390
  C         4.8088585033       -0.3109630570       34.0891635108
  H         5.2127375578        0.8103841385       19.8534856941
  H         5.9425149709        0.8183678866       18.3060595344
  C         4.3469441814        2.2248710568       18.6179450155
  H        13.1902771125        0.7412128593       22.0384561238
  H        13.2305301155        1.0045633485       20.3805183059
  C        14.2831464636        2.3844556944       21.6535175340
  N         9.7001921093        8.4395780547       18.3940721082
  C        10.3585236549        8.1899903498       16.2087375528
  C        10.6682017478        6.0414960442       15.0885968935
  H        10.5439181683        4.2657805215       16.2937151894
  H        -0.1548287900        5.7874233475       29.9080757019
  H         0.7395879927        4.5916235308       30.6808762138
  H         1.6015558970        6.0205142358       30.1162731437
  S         4.2988009343        1.2574312833       34.5225998196
  C         4.6908889780       -1.3735368715       35.1312438224
  H         4.2324974660        3.1222460168       19.1781456335
  H         4.4511025875        2.5669628356       17.6347999651
  C         3.0876714812        1.3085213129       18.8289954822
  H        14.3649572006        3.2437622217       20.8690469765
  H        15.2127768572        1.8811143324       21.4229515896
  C        14.3441198712        2.8748980530       23.0815046927
  S         9.8393024286       10.0101700730       17.8154209122
  N        10.4014848466        9.5948895647       16.3454894572
  C        10.6436726889        7.5014582449       15.0337751297
  H        10.8152039368        5.5466125285       14.2058748189
  C         4.1385334879        0.5244709353       36.1935342547
  N         4.2775098643       -0.7610497919       36.2905507748
  O         4.8585289276       -2.5803516231       34.9489439389
  H         2.2402198852        1.9609142621       18.7646577686
  H         3.0857506922        0.9342494057       19.9012135185
  C         2.8149049965        0.2109829643       17.7637746980
  H        13.7625153389        3.8524919534       23.1866340654
  H        13.9159581262        2.0904491588       23.6968680009
  C        15.7328502894        3.3157784046       23.6202048528
  C        10.9623824769        8.2868774173       13.9267937080
  S         3.4780079947        1.3515539590       37.5759754908
  C         4.2454727165       -1.5227538194       37.5405568489
  H         1.8982677597        0.6310203336       17.4369779181
  H         3.6122760840        0.1805632485       17.0129839496
  C         2.6153564105       -1.0975915486       18.5033026969
  H        15.5859204774        3.8615144199       24.5189664413
  H        16.0716868661        4.1401837602       22.9886842400
  C        16.6892065411        2.2050049641       23.8672758496
  H        10.7107280813        9.3446218204       14.0385908445
  C        11.4288479430        7.9342695427       12.6542650561
  H         3.5565779213       -1.2689894402       38.2995010146
  H         3.9260904261       -2.5337152096       37.1627908667
  C         5.5976545679       -1.4580668796       38.1474580883
  H         1.7544540613       -0.9801870374       19.2132448533
  H         3.4028741815       -1.3757482752       19.1824383425
  C         2.3818748033       -2.2080398790       17.4005012895
  H        16.9097116616        2.2660716285       24.9697735134
  H        16.2440088147        1.2359978725       23.5551686742
  C        17.9853263322        2.5206990052       23.0840115865
  S        12.1374718537        6.4062558754       12.1292540374
  C        11.5707407092        9.0296113638       11.5834290393
  H         5.7559010118       -0.5235270032       38.7556874753
  H         5.7699771338       -2.3163360507       38.7827149627
  H         6.3724124585       -1.5636294220       37.3909714173
  H         1.8934449305       -3.0742801799       17.8537969563
  H         3.2379752887       -2.4084701775       16.8115140480
  H         1.6031512979       -1.8802107173       16.7378836231
  H        18.8393476507        2.2146830996       23.7133220937
  H        18.0893932601        3.5662550821       22.8602719197
  H        18.0651162001        1.9467720124       22.1176124659
  C        12.2251080441        7.1767799936       10.4988487997
  N        12.0452432952        8.4931059012       10.4421723950
  O        11.3610729421       10.2209040355       11.8375608123
  S        12.6713961501        6.2211049451        9.1224005604
  C        12.2881228287        9.2914897774        9.2093364627
  H        12.4412245161       10.2972797219        9.4628237329
  H        13.0316434727        8.8854700199        8.5839938776
  C        11.0442374713        9.2886362281        8.3956794211
  H        11.0089294768        8.5334407842        7.6094508865
  H        10.1235210092        8.9589783886        8.9193107276
  H        10.9788923583       10.2327990462        7.8598746740
  H         5.2274424258        2.4572860888       12.9314784254
  C         4.1842329811        2.7287182370       12.9202632996
  H         4.3105335574        3.7983995125       13.1664300105
  C         3.3180344044        2.5435202425       11.6680876197
  C         3.5970170832        2.1738347929       14.0916530946
  C         4.0397581325        2.8406684496       10.3894038364
  H         2.3880062434        3.1178721239       11.6999902125
  H         3.0775355135        1.4875551423       11.5207439546
  H         2.9210654773        1.2878268809       13.8856935196
  H         3.0700302167        2.9385342687       14.5736892954
  H         4.3471036939        1.8076444579       14.7600835908
  C         4.7145380724        1.6276988045        9.7645071356
  H         3.3542763284        3.3101385796        9.6751151021
  H         4.8189344189        3.5138804479       10.7562859624
  C         5.4529846497        2.0142765158        8.4328484961
  H         3.8945512863        0.9843749145        9.4855797950
  H         5.2529387522        1.0436112221       10.5202425630
  C         6.7540805495        2.7415650187        8.5854121089
  H         4.8131154637        2.8053824187        7.9558927847
  H         5.5373917940        1.2018350906        7.7027551045
  C         7.9251784946        1.8785295006        9.1716545002
  H         7.1120368253        3.1217491264        7.5907427156
  H         6.5324242471        3.5219740525        9.2945693752
  C         9.3065070022        2.6740899053        9.4071003328
  H         8.0363549157        1.1427197550        8.4273784746
  H         7.6616997898        1.3824320373       10.0756147860
  C         9.0364292709        4.0116587538       10.0896112284
  C         9.6896635086        3.4598588971        8.1772524972
  C        10.4418438951        1.9051461960       10.1544664801
  C         9.1723807413        5.1764261472        9.3068981549
  C         8.5524561843        4.3492229719       11.3460553313
  C         9.6936129129        4.7960109943        8.0609829871
  C        10.1856668243        2.8203070886        7.0179853462
  H         9.9562440774        1.3939815597       10.9815822287
  H        10.7367696941        1.0909213179        9.4805979544
  C        11.6399860408        2.7603020670       10.5247226978
  S         8.5204207162        6.6478138447       10.0559340984
  C         8.1900507874        5.6662441819       11.4719601089
  H         8.5172320195        3.5350388897       12.0472195636
  C        10.0307929858        5.4048393021        6.9312601003
  H        10.2061146895        1.7080919732        7.0467135455
  C        10.5169890438        3.4182903503        5.8634468790
  H        11.3745980187        3.6626779328       11.0640722203
  H        12.1386165025        2.9956235055        9.6190127210
  C        12.6653516379        1.9957851998       11.3956673688
  C         7.6640409902        6.3681752686       12.7123547151
  C        10.4045655987        4.7524549704        5.7840187817
  H         9.9659184687        6.4867804633        7.0038856677
  C        10.9518148572        3.0168139047        4.5897004566
  H        13.5333295499        2.6445364249       11.4048697160
  H        12.9000881248        1.0064916299       10.9913245613
  C        12.1188283656        1.9305836435       12.8541991131
  C         7.5944729686        7.7782391573       12.9726021699
  C         7.5009977244        5.5336283403       13.9703484322
  C        10.8054191458        5.4394164280        4.5221262872
  C        11.0870178347        4.0809686999        3.7617967332
  S        11.1552529045        1.5005492981        3.8607211953
  H        11.5180994189        2.7523686030       13.2301251404
  H        11.5027309260        0.9691996714       13.0205221280
  C        13.3951086438        1.9051666502       13.7569694224
  N         7.7470646171        8.7992818288       12.0108038060
  C         7.4166701541        8.2640186582       14.2891478550
  C         7.3029403491        6.0577851583       15.2092684355
  H         7.4985775355        4.4899325997       13.9014240072
  C        12.1067160975        6.2184292511        4.4704045131
  C         9.6412324391        6.3098801099        3.9024812999
  C        11.2880571440        3.6572535594        2.3909694598
  C        11.4669766426        2.3030926936        2.3801718292
  H        13.8040033186        2.8712187202       13.8486559102
  H        14.1752838179        1.4027202257       13.1842106200
  C        13.2756177771        1.1264297267       15.0461517671
  S         7.8284873168       10.2347552541       12.8037711311
  N         7.4968205652        9.6624373307       14.3273693481
  C         7.1966100422        7.4832846790       15.4053500867
  H         7.3643813219        5.4290741626       16.0730254630
  H        11.8400057872        7.1261444243        5.0101638129
  H        12.3836381777        6.5406770805        3.4726518720
  C        13.2937786033        5.4379378322        5.0758294322
  H         9.3996074778        7.1529091595        4.5409801058
  H        10.1142627886        6.7242641396        3.0566756809
  C         8.3924019896        5.4964168977        3.4787024364
  H        11.4099261989        4.3872223899        1.6054464130
  C        11.6878861439        1.5292667807        1.1243068917
  H        12.2971980297        0.6583835040       15.0852981344
  H        14.0223907843        0.3582172213       15.1561438313
  C        13.5402083256        2.0805793038       16.2538579402
  C         6.9251524568        8.1417631805       16.6366484672
  H        13.2372215131        4.9202713274        6.0473335285
  H        13.5161976209        4.6139916929        4.3285156589
  C        14.4282273014        6.4225940968        5.3365047508
  H         8.0368752754        4.8927235786        4.3056937390
  H         8.6899805936        4.7079987992        2.7114558850
  C         7.2726160588        6.3319226974        2.9644035939
  C        11.7075855865        0.1325681728        0.8629311899
  C        12.0159192023        2.2767774533       -0.1174354395
  H        13.6258092155        3.0946627472       15.8773753143
  H        14.5708555479        1.8976120911       16.5747495266
  C        12.5654894366        1.9219328940       17.4426964547
  H         7.2476616406        9.2179000814       16.7385147555
  C         6.6095001790        7.7243092536       17.8769673097
  H        14.1470145888        6.9562441201        6.2630368970
  H        14.5784470578        7.1232193255        4.4902919591
  C        15.7682437627        5.8256467869        5.6484541013
  H         6.9807240636        6.8916375485        3.8310034358
  H         7.6223117821        6.9531921588        2.2058252776
  C         6.0485187135        5.5390569263        2.4830717917
  N        11.3526865060       -0.7980733240        1.8525839943
  C        12.0012375459       -0.5035383851       -0.3078975971
  C        12.2593512533        1.6955579915       -1.3496884150
  H        12.0797479669        3.3446587615       -0.1435867035
  H        11.5997831648        2.3612526131       17.1594343061
  H        12.9125828888        2.4813805557       18.2651666366
  H        12.3970944460        0.8417745668       17.6450939062
  S         6.1530831813        6.0281831883       18.2549131132
  C         6.4828696212        8.6677290596       19.0400539056
  H        16.0187602103        4.9590778436        4.9827605037
  H        16.5472554271        6.5985527403        5.3419478204
  C        16.0920821667        5.5055600658        7.1345119791
  H         5.7024732392        5.2645228483        3.4560755102
  H         6.2547653477        4.5912699062        1.9764975657
  C         5.0445559599        6.4172760123        1.7520982420
  S        11.4450579003       -2.3203632505        1.2605986333
  N        11.8537663102       -1.8860718908       -0.1962523314
  C        12.2936786828        0.1980029762       -1.4891466435
  H        12.3241090857        2.3060211216       -2.2771781926
  C         5.8892493471        6.6498028237       19.9106458071
  N         6.0574463055        7.9953965638       20.1059407154
  O         6.5489709192        9.9019797374       18.9031924637
  H        16.0577044732        6.4937222953        7.7627618287
  H        15.2412718457        4.9712593233        7.6138623539
  C        17.4798432172        4.7953447565        7.2956274280
  H         5.5051713412        6.8563581325        0.8872397043
  H         4.2164704070        5.8880486752        1.3022650457
  C         4.6620141874        7.6711072405        2.5198047753
  C        12.6344170904       -0.4946375931       -2.6759499142
  S         5.3136301916        5.7170368609       21.2762625286
  C         5.8389940701        8.6525230967       21.3845871740
  H        17.5289493135        4.1614270556        8.1592227877
  H        17.6878834719        4.1753566484        6.4555900563
  C        18.6726298245        5.6984094184        7.3143017526
  H         5.5073212226        8.2454929362        2.7452104410
  H         4.3058050374        7.4836145334        3.4943293851
  C         3.6422669272        8.6003498367        1.8905329718
  H        12.4577367722       -1.5082363670       -2.6959860107
  C        12.9934462086       -0.0212060441       -3.8897041769
  H         5.3690305507        8.0614924013       22.1415018517
  H         5.3603510775        9.6634737635       21.2927958937
  C         7.2758496573        8.9038122090       21.9259344649
  H        19.1711470191        5.4970354325        8.2395739366
  H        18.3025904652        6.7007422390        7.3135569013
  C        19.6699229566        5.4892493543        6.1853290207
  H         3.2164729063        8.1614265242        1.0177267026
  H         2.7920160894        8.5949855095        2.6238128775
  C         4.0989761353       10.0611802710        1.5871251426
  S        13.6430145367        1.5686276873       -4.2972684578
  C        13.0886049072       -0.9759550372       -5.0294215102
  H         7.6409325903        9.8252193875       21.4946332302
  H         8.0266710184        8.1424112989       21.5893492493
  H         7.3433697315        9.0312977502       22.9691497425
  H        20.7004000453        5.9037445329        6.4697529227
  H        19.6950641686        4.3997627420        5.9932559788
  H        19.3498994267        6.0009453965        5.1943870568
  H         4.6572996647       10.1797287759        0.6979978313
  H         3.1687426111       10.6101181593        1.5230626560
  H         4.6176565279       10.4503588032        2.4102223049
  C        14.0269133261        0.9404716986       -5.8939339191
  N        13.7860970154       -0.3910637603       -6.0152054546
  O        12.6201319793       -2.1142958936       -4.9361442953
  S        14.9349140341        1.7465456864       -7.1404247896
  C        14.1118738604       -1.1659111226       -7.2327893749
  H        14.2588744128       -2.2023548484       -6.8938959103
  H        15.0455729674       -0.8938424881       -7.7168605168
  C        12.8538164404       -0.9835842356       -8.1640973930
  H        12.0477595105       -0.4019250949       -7.8092654528
  H        12.5807989113       -1.9878711641       -8.5116820323
  H        13.1536817152       -0.4963553613       -9.0550368574
