352
 i =   126400, time =    63200.000, E =        98.7308051545
  H        10.1862541092        5.8501384239       32.4298230044
  C        11.2499540065        6.1576816605       32.5140291260
  H        11.2036493549        7.0686834558       32.9476681502
  C        11.7469078473        6.3115450322       31.0931600365
  C        11.9924827052        5.1795977780       33.3464587551
  C        10.9262263759        5.4082777648       30.0788215686
  H        11.5916109043        7.3386722290       30.7868590209
  H        12.8230904199        6.0609857977       30.9852879644
  H        11.2790448653        4.4488126106       33.6975236471
  H        12.8694517472        4.7640208968       32.8751759226
  H        12.3303434284        5.6544303378       34.2852016048
  C        11.5575265652        5.3780999992       28.6536526168
  H         9.8495355989        5.5428166393       29.9956439092
  H        11.0806671369        4.4105337845       30.4662728544
  C        10.5993026163        6.1195394230       27.7393258709
  H        12.5212756522        5.7181937669       28.8737364045
  H        11.7799125732        4.4239352105       28.3825111976
  C         9.5923654450        5.2251710282       26.9389965732
  H        11.1109155499        6.5864158231       26.9219789111
  H        10.0225379668        6.9207975781       28.3322087726
  C         8.5345481119        6.0690778431       26.2973488965
  H        10.1668538139        4.5613445858       26.2157979308
  H         9.0697415926        4.5308053333       27.6214379458
  C         7.4455296890        5.3194151016       25.4674457016
  H         8.0465759535        6.6609637796       27.0344805993
  H         8.9618833871        6.8950858809       25.7020221590
  C         7.0554332267        3.9876625865       26.1459464183
  C         7.9303527045        4.5964479709       24.2307550364
  C         6.2910406278        6.2737085154       25.1890496912
  C         7.3383485345        2.8419254508       25.4352333730
  C         6.4708203319        3.6738480045       27.3707168161
  C         7.8032883147        3.2675725217       24.1576296876
  C         8.4507473099        5.1823057046       23.1106239494
  H         6.6342671346        7.0494933080       24.4632113569
  H         5.7887918413        6.6815231426       26.0570804092
  C         5.1166065372        5.4887635406       24.6365559895
  S         6.9236105546        1.3700674397       26.1449227143
  C         6.4287685982        2.2675816156       27.5774957778
  H         6.0428328177        4.4675848540       28.0157128557
  C         8.1074563047        2.6416160219       22.9523093292
  H         8.6297379486        6.2339922682       23.2190853705
  C         8.6724469757        4.5616782383       21.9140353335
  H         5.3575031184        4.8598297468       23.7084632011
  H         4.7896208097        4.8179443063       25.3895128393
  C         3.8371338075        6.3015819336       24.3622972022
  C         5.9998754778        1.5676694405       28.8559783674
  C         8.5962118195        3.2292784541       21.7774480831
  H         8.0040161004        1.5425709296       22.8181730457
  C         9.0501000775        4.9569483752       20.6075871432
  H         3.2006574590        5.6290383057       23.7728467201
  H         4.1592705314        7.1929768488       23.7892548024
  C         2.8749580803        6.5763434633       25.5698802119
  C         6.1249117870        0.1783203873       29.0945824741
  C         5.7043618448        2.3630228651       30.0408176978
  C         8.8708149649        2.5958182826       20.4996875610
  C         9.0144609561        3.8858279113       19.7421533095
  S         9.5244385049        6.4406989765       19.8869295010
  H         2.0077029905        7.1850845466       25.2811250823
  H         3.3754679347        7.2076186147       26.2849674517
  C         2.4036256252        5.3240194411       26.3092041630
  N         6.4497514447       -0.7447600070       28.1481673843
  C         5.9290040735       -0.3809898573       30.3164779900
  C         5.3923931103        1.8161392554       31.2711023245
  H         5.7126947713        3.4848516722       29.9568050203
  C         7.6332051727        1.8572987900       20.0425982533
  C        10.1507068802        1.6598836677       20.5276421200
  C         9.3258219682        4.3418258701       18.4036715245
  C         9.6096664654        5.6625134874       18.3628476890
  H         1.9587836732        4.5800286070       25.6087678318
  H         3.1618282978        4.7419786707       26.8571765478
  C         1.4142928628        5.7580494747       27.3977820818
  S         6.4673397546       -2.2027580605       28.8821634220
  N         6.1216446739       -1.7487044734       30.3754423493
  C         5.5289511358        0.3428926886       31.4672932380
  H         5.0840418033        2.4617564511       32.0546795218
  H         7.3249654945        1.0037991166       20.6376343528
  H         8.0312416983        1.3154365385       19.1325905133
  C         6.3659186836        2.6137888304       19.6086401276
  H        10.1865702204        1.3948573276       19.5376622729
  H         9.9867516695        0.6806911579       21.0538655997
  C        11.4364598412        2.3805746452       20.9612681227
  H         9.4182908390        3.6000124780       17.6594318517
  C        10.1416108837        6.3686873713       17.1578064047
  H         0.4536285032        5.4022491393       27.0865508809
  H         1.3533780905        6.8319407513       27.2845557063
  C         1.6684778878        5.4596709474       28.8506200151
  C         5.2676530416       -0.3324673353       32.7171405260
  H         6.5969314289        3.3187769692       18.8558519211
  H         6.1425374513        3.1409755612       20.5597611294
  C         5.1598689651        1.7807382250       19.2249323898
  H        11.3055524252        2.9409029671       21.8612086317
  H        11.7002595309        3.1092135235       20.1955782687
  C        12.7465210493        1.5559665989       21.1077523177
  C        10.3291797615        7.7550013521       16.9861763787
  C        10.5790622511        5.5783057988       15.9472008011
  H         1.3457538902        6.4098363937       29.3988506130
  H         1.1023663558        4.6327818670       29.2621423221
  C         3.0318358999        4.9937640736       29.3560787088
  H         5.2920276926       -1.4542831811       32.6187709051
  C         4.9254697819        0.1407179395       33.9373720191
  H         4.7000526304        1.5403184014       20.1551956748
  H         5.4829964988        0.9072776603       18.6998690626
  C         4.2443338124        2.4778773696       18.3047674636
  H        12.5267839099        0.6452072301       21.6330726114
  H        13.1294135116        1.2483243494       20.1664465641
  C        13.8369758146        2.3452249920       21.8104303889
  N        10.1454092601        8.6835116346       18.0158619043
  C        10.5507731206        8.3692337673       15.7121479259
  C        10.9564531723        6.1622189850       14.7388107466
  H        10.6556551309        4.5113572181       16.0353501094
  H         3.1932166219        3.9670014118       29.1717124950
  H         3.8829215522        5.6730703487       29.1276544663
  H         2.8129835893        5.0259547890       30.4639973033
  S         4.7092983096        1.8374225498       34.4385534533
  C         4.8391168185       -0.8413734869       35.0154025412
  H         3.9162343458        3.4538384116       18.6386446499
  H         4.7736262540        2.6062680305       17.3937281036
  C         2.8890276693        1.7850558113       17.8928782909
  H        13.5814932411        2.7218970222       22.7494141884
  H        14.0052803900        3.2578395002       21.2149696603
  C        15.2330997297        1.6327396494       21.7736028191
  S        10.1379047047       10.1860095098       17.3613648911
  N        10.6065198129        9.7764063803       15.8071292603
  C        10.8727110037        7.6404630883       14.5363842252
  H        11.2272276718        5.5565655567       13.9393363174
  C         4.5157882550        1.1152385852       36.0467457213
  N         4.4967270602       -0.2029184969       36.1416923091
  O         4.8897063787       -2.0507864666       34.8389385458
  H         2.3295539912        2.5331643692       17.3723642338
  H         2.2448040737        1.6035285087       18.7303385097
  C         3.0053627473        0.5840951755       16.9658870598
  H        15.1469229337        0.5970514708       22.2324175418
  H        15.5632836071        1.6227757474       20.6610164309
  C        16.2193326358        2.5964787394       22.4944701267
  C        11.0552769413        8.4499448122       13.4150793832
  S         4.1811178347        2.0664892019       37.5118666040
  C         4.4342571351       -1.0393622188       37.3440863813
  H         2.1939717018        0.6806176510       16.2962038409
  H         3.9299929203        0.6208406741       16.3311540063
  C         3.0483402782       -0.7833623968       17.6124868393
  H        15.9402396256        2.7769581219       23.5361249873
  H        16.1968603239        3.6561990797       22.0293650098
  C        17.6279826526        2.0997270291       22.5786725380
  H        10.5884942843        9.4094489079       13.4485524029
  C        11.6371224534        8.1434611996       12.1838181200
  H         3.8645001456       -0.6833650235       38.2224698853
  H         3.8300872059       -1.9035966774       37.0362973596
  C         5.8875026965       -1.4293361349       37.8515702310
  H         3.8342256500       -0.9302207857       18.3433061935
  H         3.3532059402       -1.5295074834       16.9015323237
  C         1.7010754093       -1.2490988741       18.1580509148
  H        17.8145737615        1.1829662319       21.9707151419
  H        18.2871105278        2.8358430238       22.1608056483
  C        17.8962298865        1.8111123139       24.1053850332
  S        12.1950212113        6.6210469025       11.7924584211
  C        11.8602383513        9.2557064757       11.1911458142
  H         6.5351760144       -1.8424899053       37.0132124858
  H         6.4294430186       -0.5748092536       38.2766963968
  H         5.8177409141       -2.1972323309       38.6438591065
  H         0.8165255095       -0.6572820257       17.8314665002
  H         1.6042684164       -1.3426761200       19.2463008578
  H         1.4216813498       -2.1722710414       17.7073750263
  H        17.1220075859        1.1541616111       24.5141226460
  H        17.8253425660        2.7879601967       24.6658084482
  H        18.8378016423        1.2226632346       24.0372435316
  C        12.7022786372        7.3837359613       10.2158046920
  N        12.5487263953        8.7586270480       10.1442074860
  O        11.4713722623       10.4322157373       11.3432309062
  S        13.3072715538        6.4970796618        8.7857578092
  C        12.8313329500        9.5735462040        8.9845973621
  H        13.0793685203       10.5801344579        9.3124692633
  H        13.6766893891        9.1958395070        8.5295875751
  C        11.6365450189        9.4605704439        8.1186640342
  H        11.3313862401        8.3815440857        8.0391868515
  H        10.7773701406       10.0276960908        8.4407099175
  H        11.9964112966        9.7955125732        7.1177027065
  H         3.4578030156        3.8314478421       12.6396938582
  C         3.5690176822        2.7725750271       12.5621453940
  H         2.9026426629        2.3213218071       13.2796547471
  C         3.0188257632        2.3262144244       11.2183295743
  C         5.0550985205        2.4043026085       12.8587456826
  C         3.7827579059        2.8125013207        9.9941918692
  H         1.9843177686        2.6560037286       11.2050328277
  H         2.9431594075        1.2485981332       11.2071789925
  H         5.1929673612        2.0632221055       13.9070312102
  H         5.7283080501        3.2110097117       12.7582255371
  H         5.4451084556        1.6770699662       12.2097311414
  C         4.6642553619        1.5872302382        9.5124582925
  H         3.0517091999        3.1966627717        9.3123337386
  H         4.3610163697        3.7309069152       10.1776822460
  C         5.5376332733        1.8248887052        8.3060136920
  H         3.9692271015        0.7248214613        9.2397132143
  H         5.3281458789        1.1578991691       10.3029330317
  C         6.7490648909        2.7333464533        8.6269072031
  H         4.9024530660        2.1897732694        7.5141826091
  H         5.9630985650        0.8777295274        7.9193875750
  C         7.9439500192        1.9461862685        9.1283618166
  H         7.0390957616        3.3652110064        7.7363405414
  H         6.4999259775        3.4521806265        9.3208566118
  C         9.2089380028        2.8252359132        9.3318210997
  H         8.1797555043        1.2612109476        8.3013784498
  H         7.8279218338        1.2665505641       10.0094351365
  C         8.9342565821        4.1964921243        9.8835677563
  C         9.6828926731        3.4901809052        8.0650260934
  C        10.3564630956        2.1940147544       10.1152771334
  C         9.2988498336        5.3155573711        9.1674179171
  C         8.4134863266        4.6461666626       11.1220086676
  C         9.7290605772        4.8414499216        7.9603324132
  C        10.0858080910        2.9009304366        6.8140466124
  H         9.8431185724        2.0063091898       11.0228833565
  H        10.5608088821        1.1551709982        9.6663056480
  C        11.6374164360        3.0176683610       10.2972683191
  S         9.0303259005        6.8583121705        9.8805700430
  C         8.3849605923        6.0271657587       11.2376905936
  H         8.0954948198        3.9567150693       11.8237827711
  C        10.1640134005        5.4890926092        6.8228876801
  H        10.0086137306        1.7726966286        6.8894506815
  C        10.5355071510        3.4689871961        5.6484687229
  H        11.3937066243        4.0374005836       10.6439935001
  H        12.1444353987        3.1473125603        9.3418604815
  C        12.6389249896        2.3587864775       11.1794537282
  C         8.1322303300        6.7417269869       12.5295379893
  C        10.5704349891        4.8568856439        5.6024138700
  H        10.1131665851        6.5678966740        6.8895082055
  C        10.9405623035        3.0553510706        4.4367308606
  H        13.5629540896        2.9691917137       11.2229154085
  H        12.9728415418        1.3918779695       10.8624663807
  C        12.0709048953        2.3426822044       12.5540075799
  C         7.9174841703        8.0983701372       12.7187434841
  C         7.8635112677        5.9091802646       13.7372280299
  C        10.9188926860        5.4805414521        4.3347567462
  C        11.1022040352        4.1226684329        3.5891449486
  S        11.3311126956        1.5179260782        3.7445476196
  H        11.4051547263        3.1928946491       12.6271445802
  H        11.4470393130        1.4559798172       12.8453969441
  C        13.2215648973        2.2218828236       13.5444492634
  N         8.0518654216        9.1126762299       11.7891481057
  C         7.6692803303        8.6667686359       13.9597796272
  C         7.5417594586        6.4769539858       14.9545742951
  H         7.9134494539        4.7718183879       13.6234178848
  C        12.2732429042        6.2718097006        4.3643298848
  C         9.6445792537        6.2335799941        3.7077104039
  C        11.5952325520        3.7453938363        2.3390046651
  C        11.6337061068        2.3781779332        2.2548913745
  H        13.7382877915        3.1684817790       13.5905954036
  H        13.9415906686        1.5134557114       13.0585866172
  C        12.8082505207        1.7021706172       14.9223113726
  S         7.7370730982       10.5216051030       12.4925173045
  N         7.6578291371       10.1117412647       14.0032091140
  C         7.3643709100        7.9004896759       15.1318433856
  H         7.5703794130        5.8518121264       15.8115920173
  H        12.0806192502        7.1826234567        4.9058028339
  H        12.5334890453        6.5941205186        3.3689408000
  C        13.3715072539        5.4712480813        5.0436801481
  H         9.0078940369        6.5372532132        4.5232542593
  H         9.8990826694        7.0876641610        3.0626871803
  C         8.5914261145        5.2945700253        2.9692432213
  H        12.0184911415        4.4380767728        1.6377086672
  C        11.9483379951        1.5265717386        1.0076800981
  H        11.8713416340        2.1737637357       15.1788143684
  H        12.5410354733        0.6095381367       14.9212158137
  C        13.6838033035        2.0672603093       16.1387189797
  C         7.1377827609        8.5699349888       16.3651177645
  H        13.0480344776        5.0389051951        5.9599643489
  H        13.4677232781        4.6119943569        4.3473691033
  C        14.7860864315        6.0626514030        5.2544714122
  H         8.1868419432        4.6002436426        3.7380823227
  H         8.9633306148        4.6662956153        2.1423471974
  C         7.4530407244        6.1607870181        2.3831906005
  C        11.9232529863        0.1008153799        0.9767508059
  C        12.2682625637        2.1930635420       -0.2767164423
  H        14.4986101847        2.8035360010       15.9705805794
  H        14.1838420892        1.1729163488       16.4842980231
  C        12.9203547380        2.6885628761       17.2877059641
  H         7.2109396889        9.6890683042       16.3658581705
  C         6.8849850654        8.0394738334       17.6147044301
  H        14.6748244519        6.9817264300        5.7993571294
  H        15.2461362271        6.3690661230        4.3404583472
  C        15.8541926067        5.2309862485        6.0786366507
  H         7.1326884767        6.6827575184        3.2523961580
  H         7.8243220026        6.9668309165        1.7251043286
  C         6.2982836533        5.4133978640        1.7796921052
  N        11.5768064591       -0.7712299662        2.0549922825
  C        12.3972220498       -0.6000658280       -0.1234727675
  C        12.6053820693        1.4786419334       -1.4243276168
  H        12.3637289633        3.2396208745       -0.3598488462
  H        13.3377465948        3.6976011944       17.4598175827
  H        13.0589377090        2.1121780042       18.2311325161
  H        11.8773558956        2.7754952731       17.1203886657
  S         6.5507111142        6.4204058437       18.0365650639
  C         6.7519763027        8.9683851333       18.7670066420
  H        15.4827600227        4.9609688189        7.0617411525
  H        16.0145785838        4.2535923775        5.5949229939
  C        17.1157529498        6.0171608145        6.3899987952
  H         5.7874423435        4.9046783319        2.5715309857
  H         6.4879404360        4.5139150792        1.2123848570
  C         5.4995681042        6.4638290864        1.0663332938
  S        11.7192316414       -2.2985566716        1.4883295858
  N        12.5109219890       -1.9692751633        0.0790315899
  C        12.7257474606       -0.0513646807       -1.3444996715
  H        12.7824691207        1.9479216923       -2.3943088429
  C         6.3124607232        6.9258835333       19.6820631620
  N         6.3429406798        8.2883589007       19.8500431361
  O         7.1426636747       10.1594147969       18.8029974669
  H        17.6154206752        6.2157509562        5.3855227721
  H        16.8249000971        7.0156009079        6.8023558274
  C        18.0887108528        5.2734086876        7.3303614898
  H         6.0732601264        7.0881035383        0.3924314863
  H         4.8138867446        5.8899186058        0.4180477616
  C         4.7299888107        7.4150194941        1.9804941026
  C        12.9601008829       -0.9769763729       -2.4646935553
  S         5.7721172359        5.8691333226       20.9605307619
  C         6.2145818435        8.9370237254       21.1698422454
  H        17.7953707122        5.2029145793        8.4528992168
  H        18.1620312551        4.2657320389        7.0266972134
  C        19.4315846162        6.0084531844        7.3380907454
  H         5.5199667842        8.0335333116        2.5826212376
  H         4.2905668391        6.7766727524        2.7332505067
  C         3.7877405462        8.3352496937        1.2571701024
  H        12.6062395895       -1.9631229049       -2.2866610785
  C        13.4590648199       -0.7276260630       -3.6923072689
  H         5.4822812066        8.5532830580       21.8352247562
  H         5.7948895049        9.9516217458       21.0611579806
  C         7.4981232197        8.8930360281       21.8942737249
  H        20.0044503135        5.6554910481        8.1854921524
  H        19.2762873439        7.1204490832        7.3960761451
  C        20.2136640005        5.7325488255        6.0871553865
  H         3.6805479239        7.9976584876        0.2443812942
  H         2.8076268976        7.9933329323        1.6967524134
  C         4.1358688049        9.8274524416        1.5801029405
  S        14.1530369300        0.6890202565       -4.3781235223
  C        13.2748707142       -1.8548831265       -4.6358691366
  H         7.5894778345        9.8237447948       22.4637748208
  H         8.3205398125        8.7704476959       21.2118507433
  H         7.6581808562        8.0131534907       22.5857347015
  H        19.6170490389        5.7000698391        5.2057959735
  H        20.9493820291        6.5013460014        6.0504624699
  H        20.7710735868        4.8197288080        6.2682813249
  H         4.3511717673       10.0663876893        2.6474405126
  H         5.0072093410       10.1464918197        1.0380280710
  H         3.3713112084       10.5419516038        1.2946945298
  C        14.1091369984       -0.1267875814       -5.9277213921
  N        13.7921670396       -1.4074862686       -5.8435518293
  O        12.9508013072       -2.9818141238       -4.2570652897
  S        14.6018319739        0.5365990085       -7.4621061505
  C        13.9406280580       -2.3199839534       -6.9481859808
  H        14.0507769476       -3.3560844774       -6.5247754884
  H        14.8369623005       -2.2095820605       -7.5831341226
  C        12.7270561473       -2.3266834045       -7.8672493915
  H        11.8178296728       -2.3295656849       -7.2534155407
  H        12.7941754305       -3.3150815025       -8.3601708785
  H        12.7318154221       -1.4831027188       -8.5974828592
