352
 i =    95700, time =    47850.000, E =        98.9277008625
  H        11.7274258460        7.1894907974       32.2782612816
  C        11.7263895203        6.1351620195       32.2804288742
  H        12.7494546744        5.7916639269       31.8856172022
  C        10.5951099617        5.7211572846       31.2482936328
  C        11.4949397667        5.7306846936       33.7494432009
  C        11.0284834379        5.8576190544       29.8113669597
  H        10.3691587987        4.6477543874       31.2774262138
  H         9.6511975256        6.3109732977       31.4017448314
  H        12.2992664515        6.2203992176       34.3111260344
  H        10.5224561894        6.0338621732       34.0880722494
  H        11.5301455363        4.6376272681       33.8638373539
  C         9.8999957163        5.4587492983       28.8581329500
  H        11.8557635520        5.2230566018       29.4602415887
  H        11.3681594202        6.8552844539       29.5921301355
  C        10.3993177859        5.4648140313       27.4732158918
  H         9.6192094334        4.4245687040       28.9875444350
  H         9.0710921140        6.1560843237       28.9243489368
  C         9.3606261724        4.9093294062       26.4941846648
  H        11.3345535283        4.8991250345       27.3188824792
  H        10.5787360506        6.5004231155       27.1733012735
  C         8.1485312254        5.7501486926       26.3634843048
  H         9.8317600360        4.6510035778       25.5549381763
  H         9.0105573508        4.0963243651       26.9718990540
  C         6.8786569614        5.1283045742       25.6206724662
  H         7.7188843579        6.1295745943       27.2480702966
  H         8.4154976881        6.6119089461       25.8154818691
  C         6.4953667991        3.8469271565       26.2628584398
  C         7.2927993882        4.4376584904       24.3744837565
  C         5.6609658105        6.0318836233       25.4206893277
  C         6.7334086553        2.7224723809       25.5355581916
  C         6.0244028966        3.4448385083       27.5433968104
  C         7.1835876555        3.0766421748       24.2941131993
  C         7.8107949802        5.0706486497       23.2545517445
  H         5.9553490802        6.9120739029       24.8759749565
  H         5.5815100270        6.3888185632       26.4619526944
  C         4.4032841077        5.4519889088       24.7961632470
  S         6.3569597142        1.1509897363       26.3119469586
  C         6.0649069534        2.0784044559       27.7542933636
  H         5.6842468480        4.1426638425       28.2545709902
  C         7.6580419534        2.4295724216       23.1722184152
  H         7.9197181621        6.1695000313       23.3258515200
  C         8.1503631907        4.4032116074       22.1269977322
  H         4.4325671234        5.3251208328       23.7144006660
  H         4.3003562850        4.4437438089       25.1993531856
  C         3.0797394363        6.2375426023       24.9535274006
  C         5.7622437851        1.4595820494       29.0700183450
  C         8.1439229732        3.0744792637       22.0498346217
  H         7.5395029969        1.3756474385       23.1771509836
  C         8.7299122838        4.8229159322       20.9589445786
  H         2.2388477215        5.7267743897       24.4894408892
  H         3.2046284493        7.1640942033       24.3718760634
  C         2.6002545382        6.4984008684       26.3500802530
  C         5.9689183271        0.1216643751       29.3683742914
  C         5.2401183889        2.2548234859       30.1890370833
  C         8.6107984765        2.4217910756       20.7600687257
  C         9.0432189140        3.7588509173       20.1261460024
  S         9.0872593579        6.3584399804       20.2675704798
  H         1.7271332762        7.1820770034       26.3419717420
  H         3.2670905497        6.9741161229       27.0686973183
  C         2.1168649459        5.0832147884       26.8959542068
  N         6.4362193559       -0.8091162865       28.4492773418
  C         5.5999111556       -0.4916000908       30.5632499020
  C         4.9143184155        1.6673407779       31.4457034093
  H         5.1518101988        3.2980667293       30.0088119247
  C         7.4798498026        1.6225869192       19.9368463741
  C         9.8895708273        1.5309780638       20.8455292477
  C         9.6157979320        4.2265207773       18.9218526157
  C         9.7209739210        5.5904427098       18.9106676632
  H         1.3789886483        4.6236575643       26.3201773880
  H         2.9859163340        4.4254343703       27.0393055951
  C         1.6218341431        5.2431543548       28.3560068353
  S         6.2064684400       -2.3263610196       29.1292014051
  N         5.8956846262       -1.8539726030       30.6562954051
  C         5.1313553048        0.1663152198       31.7260119571
  H         4.6387324758        2.2440338934       32.3050088408
  H         6.8979819464        0.9174807852       20.5486371954
  H         7.8537369279        0.8826634870       19.2585193605
  C         6.5336748539        2.6257198260       19.2074692822
  H        10.1890821858        0.9338770313       19.9399265641
  H         9.8166379665        0.7285242026       21.6005015977
  C        11.2103185353        2.3527500191       21.2216833705
  H         9.9505522763        3.5488709311       18.1699230998
  C        10.1206043517        6.3509186346       17.7134635542
  H         0.8733586918        4.4960548848       28.6237497340
  H         1.1474102883        6.2527287350       28.4806444305
  C         2.7576313807        5.1973128377       29.3684125762
  C         5.0746062000       -0.5423544539       32.9518850716
  H         7.0114982414        3.1203433408       18.3534392530
  H         6.2134730697        3.3017551330       19.9952477684
  C         5.3526145049        1.8271720660       18.5452293204
  H        11.0424913187        3.1750163804       22.0225021124
  H        11.5299394999        2.8936607001       20.3527041692
  C        12.4853524067        1.6161006157       21.6578881181
  C        10.1559193305        7.7538947980       17.6395559448
  C        10.2961537213        5.6590150069       16.4129383681
  H         3.3607122052        4.2277528859       29.3675842934
  H         3.5809632248        5.9380214606       29.1849422303
  C         2.2739220486        5.3618503382       30.8103908016
  H         5.1859581077       -1.6632335367       32.9023000208
  C         4.7514577674       -0.1034206255       34.1892817371
  H         4.9069541677        1.1240769129       19.2281056025
  H         5.7650032325        1.2996591565       17.7028985761
  C         4.2964450751        2.6424235550       17.9307275019
  H        12.3248445612        1.1578344942       22.6821443104
  H        12.7267935070        0.8373244273       20.9608213213
  C        13.6787066711        2.6025923514       21.8152154565
  N         9.9691543880        8.6438465228       18.7406279472
  C        10.3655979240        8.4849171108       16.4199048715
  C        10.5824898389        6.3413678127       15.2409807244
  H        10.2539148712        4.6009636757       16.3873902530
  H         1.1917573159        5.2892646527       30.8329836483
  H         2.7774999394        4.8014548118       31.5590068486
  H         2.4493249993        6.4358974708       31.0319655462
  S         4.3711568749        1.5002064502       34.7270728040
  C         4.8411130232       -1.1269229261       35.2514087179
  H         3.7466996544        3.1015535932       18.7389077102
  H         4.6886308281        3.4147024329       17.2655392106
  C         3.2364078193        1.9527212130       17.0621878561
  H        13.4523331215        3.3680541878       22.5056282825
  H        13.9716362922        2.9793585516       20.8077377519
  C        14.9204670192        1.9432326730       22.3305461983
  S        10.1486248522       10.1600997217       18.2010194811
  N        10.2354524148        9.8153111510       16.6300678650
  C        10.5858904962        7.8304209393       15.1308779642
  H        10.7278777957        5.7257431298       14.3504342940
  C         4.1914886270        0.7631551858       36.3956972511
  N         4.4744624283       -0.5836663643       36.3905810179
  O         5.0886259760       -2.2707890592       35.0716119441
  H         3.5834440586        1.8584879920       16.0279891060
  H         2.3621832337        2.7025296417       16.9152794272
  C         2.4930366680        0.7640510406       17.7217854395
  H        14.7352053960        1.6768074617       23.3120569139
  H        15.1074788661        1.0339947737       21.8444520441
  C        16.2093141397        2.7215082658       22.1249543950
  C        10.8982330600        8.5939173919       13.9589145909
  S         3.7227643255        1.5278662007       37.8852721612
  C         4.4235853117       -1.4047072829       37.6103165231
  H         2.6741533784        0.7656909311       18.8473938370
  H         1.4024315191        0.8169567903       17.5193125164
  C         3.1045354827       -0.5440281750       17.0912552487
  H        16.1152921651        3.6385286279       22.6319129286
  H        16.4187664783        2.7552645933       21.1019991874
  C        17.3197580991        2.0229514263       22.8206550155
  H        10.6581351620        9.6488098361       14.1322018584
  C        11.4865423444        8.3274550994       12.7800200800
  H         3.5584712346       -1.0644498564       38.2092601889
  H         4.3229590264       -2.4830504034       37.3743890438
  C         5.7492963026       -1.1508496424       38.3944050292
  H         4.1062144999       -0.3834489080       16.8922387963
  H         2.7714086869       -0.6992790680       16.0374721643
  C         2.9636386424       -1.8447556908       17.9049798687
  H        17.2835158418        1.0213496104       22.3609321996
  H        18.2789225370        2.4167571148       22.4693496436
  C        17.1796301582        2.0805391612       24.3371179443
  S        11.9483054728        6.8037864100       12.2153832865
  C        11.4431678768        9.4204509898       11.7605221625
  H         5.7030541687       -1.2013161990       39.4810592610
  H         6.5280934889       -1.8736804450       38.0820302935
  H         6.0562889627       -0.1321023121       38.1821506340
  H         3.6996333807       -1.8705586251       18.6533343147
  H         3.2941177179       -2.6399737066       17.2238184905
  H         2.0140031934       -2.0512113517       18.3774233310
  H        18.2052790403        2.0774921894       24.6754237826
  H        16.6658928547        1.2456410503       24.7499157629
  H        16.7394336003        3.1050627868       24.5987650014
  C        12.3734498176        7.6429306395       10.7223722227
  N        12.1110825758        8.9889625009       10.6752344037
  O        11.0647273991       10.5580430952       12.0608054397
  S        13.0702184463        6.8599820108        9.2740101485
  C        12.2419016862        9.8316689472        9.5452005974
  H        12.2504081278       10.8663587429        9.8012338618
  H        13.1330812935        9.7835277256        8.9197457020
  C        10.9735388460        9.6763539469        8.6357157468
  H        10.1453012325       10.2705057169        9.0480377745
  H        11.0231489216        9.8061499671        7.5806307507
  H        10.5933438208        8.6834110148        8.5721373360
  H         3.4261333168        1.3636269328       13.2809852867
  C         3.0118905379        2.3100902488       12.9262298845
  H         3.8416942895        2.9714502145       13.1715916052
  C         2.7805675188        2.1913166988       11.3857177163
  C         1.7933737877        2.6829076080       13.7863929466
  C         3.9821115784        2.5011236132       10.5592182229
  H         2.0214406173        2.9450430210       10.9997184748
  H         2.4831533170        1.1440963703       11.0973850647
  H         2.0956279208        3.1108814176       14.6785815292
  H         1.1452141783        1.8527897901       13.8110404581
  H         1.2984976863        3.4566999944       13.2078413513
  C         4.8381330393        1.3432724607        9.9507973449
  H         3.7171712699        3.1843100823        9.7332668860
  H         4.5581591151        3.1428722554       11.0821530679
  C         5.6512851008        1.7736486676        8.7081671185
  H         4.0706617041        0.5613235743        9.6776864048
  H         5.4254511405        0.8411134738       10.6975662777
  C         6.8165273130        2.6863780552        8.9593086570
  H         4.9993801176        2.2213162399        7.9828712696
  H         5.9942240324        0.8511742781        8.2833314696
  C         8.0486700091        2.0210700356        9.5373842889
  H         7.1160413450        3.1931994680        8.0523660370
  H         6.5438070545        3.5108948757        9.6798835373
  C         9.3052326886        2.8815815289        9.6044077884
  H         8.2691491771        1.0992058194        9.0546317601
  H         7.8025036121        1.7387293150       10.5705503462
  C         8.9479868009        4.2640123281       10.2109948559
  C         9.5706020840        3.5740032077        8.2625088186
  C        10.4963496342        2.1235354467       10.2177243740
  C         8.9639931538        5.3201255068        9.3170101006
  C         8.3722855248        4.7585293900       11.4018286281
  C         9.3513873867        4.8849175373        8.0664659718
  C         9.9785994485        2.9115661063        7.1248599179
  H        10.1510718926        1.4499725236       10.9906516904
  H        10.9849099513        1.4675113258        9.4848122596
  C        11.5389285402        3.1218215399       10.8981522473
  S         8.6748751495        6.8897098258       10.0148356916
  C         8.1637993181        6.1219015368       11.4239961210
  H         8.2601273112        4.1270271934       12.2287697548
  C         9.5048279545        5.4144423391        6.8532169264
  H        10.0520876357        1.8221867074        7.1455544662
  C        10.2262176976        3.4919269408        5.9292363195
  H        10.9849853254        3.4972831016       11.7921226232
  H        11.9061936659        3.8008218383       10.1498849027
  C        12.7135162699        2.3881705457       11.5161473938
  C         7.6100996702        6.8073832617       12.6058931351
  C        10.0438612314        4.7955825741        5.7591626422
  H         9.2290207665        6.4544199469        6.7156057068
  C        10.6792060969        3.1010920272        4.6607408511
  H        13.5616109957        2.8440155263       10.9749336617
  H        12.6141031758        1.3650920164       11.3191708334
  C        13.0162251572        2.6449027802       12.9734314319
  C         7.7771235819        8.2211431999       12.8985493316
  C         7.0807640885        6.0170187914       13.7258746493
  C        10.3756977791        5.5267254410        4.4866270293
  C        10.6909989808        4.1791558433        3.8232425232
  S        11.1292947152        1.6218540188        3.9009578182
  H        14.0846802609        2.4009776842       12.9942287725
  H        12.9803405535        3.7319925947       13.2604844785
  C        12.3890169862        1.6053385559       13.9673307818
  N         8.0461863840        9.2337193764       11.9637576348
  C         7.5652522941        8.7750822161       14.1613109079
  C         6.9174960234        6.5580908944       15.0106026511
  H         6.6972847464        4.9739050426       13.5986296410
  C        11.5836092772        6.4523358210        4.7629025284
  C         9.2096235840        6.2996208996        3.6706609459
  C        11.1388458739        3.8302100078        2.5556354750
  C        11.4098241619        2.4515648324        2.4326911906
  H        12.9723599039        0.6571097366       13.9701712910
  H        11.3697958875        1.3502863505       13.6100140045
  C        12.3041329388        2.2816245576       15.3091394944
  S         8.0698647884       10.7027863256       12.6531600436
  N         7.7814268860       10.1883992773       14.1597012134
  C         7.1469684058        8.0186619595       15.2909771501
  H         6.5496128188        5.9391893195       15.8314516568
  H        11.2558538032        7.3565200846        5.3145734964
  H        11.9319593165        6.8272560545        3.8099342434
  C        12.7689947018        5.7324167854        5.4905827940
  H         8.7832714871        7.0615171126        4.2487504080
  H         9.6329040101        6.7391360913        2.7496487729
  C         8.1042037493        5.3327847569        3.2457281053
  H        11.3490652485        4.5897664186        1.7992717295
  C        11.7249214866        1.7370815183        1.2021095824
  H        12.0988699443        3.3046789580       15.1026282455
  H        11.4420899808        1.7768127909       15.7935099726
  C        13.5986037848        2.2219510675       16.1342063235
  C         7.0095090990        8.7160563446       16.5377900927
  H        12.3768070379        5.3647692018        6.4322610382
  H        13.0853764612        4.8474174729        4.9046236693
  C        14.0479087950        6.5323270913        5.8002787048
  H         7.7342265174        4.8481941585        4.1334631359
  H         8.4369490777        4.5000870247        2.6509346511
  C         6.9680265520        6.0615388740        2.4708909530
  C        11.7876659699        0.3286047291        1.1025669357
  C        12.0325437766        2.5223657322       -0.0150881623
  H        14.1178232760        3.1122867434       15.8277440566
  H        14.2336506941        1.3417075101       15.9094927346
  C        13.3304156835        2.4456801052       17.6646827473
  H         7.3198753001        9.7927776207       16.5388750107
  C         6.5701756618        8.3418140456       17.7583583439
  H        13.8342687590        7.3882227408        6.4216928236
  H        14.3983528796        6.8764515967        4.8438670175
  C        15.0256572405        5.5540187372        6.4584338222
  H         6.3816796968        6.5701703141        3.2391915246
  H         7.4304244655        6.7113240670        1.7042854486
  C         6.0871009356        5.1505984366        1.7121912092
  N        11.3516366768       -0.5630076191        2.0757783339
  C        12.0752060018       -0.3389238017       -0.0690871954
  C        12.4378610928        1.8149094987       -1.1405277639
  H        11.8248099702        3.5872201002       -0.0228615177
  H        13.2932813268        1.4475592433       18.2149543527
  H        12.3915497332        2.9232496458       17.8079281539
  H        14.0940481768        2.9933059942       18.1384041060
  S         6.0387459444        6.7988946115       18.2440415708
  C         6.6116226223        9.2941724340       18.7980020034
  H        14.5242732103        5.2093461728        7.2595339825
  H        15.3388669726        4.7503182322        5.7519083152
  C        16.2816253686        6.2307281998        6.8564630801
  H         5.9048378356        4.1757502690        2.2911612930
  H         6.3650520876        4.9202898763        0.6989516644
  C         4.6532384779        5.7322715560        1.5040099684
  S        11.5716819774       -2.1068270035        1.5064558086
  N        12.0383066621       -1.7200749797       -0.0223310897
  C        12.4240402910        0.3403408153       -1.2186791088
  H        12.6854429592        2.3473765133       -2.0142594224
  C         5.9103625931        7.4082963666       19.8287812469
  N         6.2451399772        8.6855655240       19.9537748397
  O         6.8298616219       10.4509721520       18.5403917220
  H        16.3873122655        7.1429346118        6.2178780322
  H        16.2589394303        6.5615167352        7.8879474982
  C        17.4719178643        5.4672428619        6.5653867412
  H         4.0118122777        4.9057064475        1.1689111769
  H         4.2836952621        6.0343115812        2.4769829331
  C         4.7328067172        6.8614228170        0.4666361308
  C        12.5625403578       -0.3512131741       -2.4556507489
  S         5.6152524548        6.5213560849       21.3793299578
  C         6.3455716010        9.3362899297       21.2841756817
  H        17.4043611552        4.4689551552        7.0206008280
  H        17.7393220477        5.3063086452        5.5664775711
  C        18.6922481994        6.0865254080        7.1286263344
  H         4.6694667578        6.3396951983       -0.5498416820
  H         5.7150686229        7.3100242278        0.5117320145
  C         3.5795379790        7.8188407031        0.6016229133
  H        12.4022681536       -1.3878675021       -2.4682922532
  C        13.0082061313       -0.1235786699       -3.6944540620
  H         5.6412985623        9.0086247442       21.9989108239
  H         6.0648597980       10.3729920483       21.1619645117
  C         7.7477999254        9.3634287931       21.8723758497
  H        18.7021983608        5.9248592882        8.1616841665
  H        18.7185944191        7.1355550708        7.0668194418
  C        20.0043176044        5.6447592405        6.5402612371
  H         3.0467485637        8.1127839735       -0.2886613447
  H         2.8001082686        7.4494471403        1.2725274391
  C         4.0673254207        9.1042311964        1.2327436831
  S        13.7054679897        1.3528696974       -4.2208999189
  C        13.1118093136       -1.2582701141       -4.6004002711
  H         8.1874958535       10.2984562841       22.0701794504
  H         8.5305476404        8.9537644810       21.1890283338
  H         7.7506752958        8.7207355655       22.7797838353
  H        20.1123248947        6.0973965343        5.5701591266
  H        20.8196838170        5.9409758911        7.1918308932
  H        19.8683845524        4.5710700410        6.3678816841
  H         4.9142588297        9.4275659094        0.6393861313
  H         3.3406838158        9.9191577356        1.3711617623
  H         4.4761143906        8.9613967348        2.1972277847
  C        14.1091775979        0.4918783799       -5.6837998317
  N        13.7302873864       -0.8223340553       -5.6893411505
  O        12.7271932984       -2.4279616145       -4.4819403609
  S        14.8507462883        1.1530466531       -7.0802129492
  C        13.8186393905       -1.6826324313       -6.8051249729
  H        13.9627533820       -2.6924031137       -6.4252095626
  H        14.7306930472       -1.6291417464       -7.3727168103
  C        12.6180167741       -1.5490806607       -7.7711023177
  H        12.6637301806       -0.6434958863       -8.3791019987
  H        11.6408902034       -1.3967569256       -7.2338269849
  H        12.5401490956       -2.4239218283       -8.4159417313
