352
 i =    81100, time =    40550.000, E =        99.9023325933
  H        12.7448678142        6.2817037662       32.1029289695
  C        11.9691409615        5.5159212930       32.2187658865
  H        12.3182940954        4.6365092928       31.7323906474
  C        10.7079831995        6.0328864077       31.4368038800
  C        11.6228007271        5.0851790714       33.6825802373
  C        11.0824618356        6.3807361330       29.9703522636
  H         9.9859653302        5.2819863509       31.6203687874
  H        10.2338781278        6.9602494026       31.7784668436
  H        11.3533860301        4.0534765470       33.8597543231
  H        12.5674204133        5.2722981283       34.2623821772
  H        10.8578418062        5.7042070600       34.1268306342
  C        10.9193370414        5.2245273042       28.9230503093
  H        12.1409204357        6.6530653690       29.9027523471
  H        10.4701037161        7.1837552276       29.7764642749
  C        10.8078882427        5.7444168768       27.5086224616
  H        11.7478862670        4.5147071297       28.9328218542
  H        10.0384886692        4.6657227989       29.3947756983
  C         9.6895382362        5.2381547498       26.5601463084
  H        11.7688900487        5.8961612997       26.9837224103
  H        10.4964418704        6.7390915004       27.7830627516
  C         8.6080573453        6.2395597577       26.1538559994
  H        10.0997874051        5.0092657752       25.6364349726
  H         9.2606627244        4.3677138369       27.0175698538
  C         7.3224654607        5.5150089317       25.6057349839
  H         8.3292621383        6.8349958950       27.0650063731
  H         9.1486000909        6.8138031999       25.3596137760
  C         7.0001403113        4.1799249068       26.3091405806
  C         7.7748832313        4.6822215557       24.4513072783
  C         6.0990395620        6.4586950867       25.2688464787
  C         7.1546058581        3.0364534974       25.5898115986
  C         6.5529472269        3.8234530674       27.6026977882
  C         7.7078759006        3.3335751308       24.3469661633
  C         8.2353401881        5.2640587067       23.2790901326
  H         6.3725072132        7.2091097141       24.5265322491
  H         5.9153333492        7.0154447866       26.2182317215
  C         4.8130168698        5.6532549646       24.9235885473
  S         6.8384876383        1.5568150083       26.4166560613
  C         6.4360592956        2.4406647008       27.7970740710
  H         6.4606715522        4.6891850668       28.3331381901
  C         8.0643883931        2.6794395400       23.1993222457
  H         8.3536737371        6.2661148474       23.2446556160
  C         8.5284692773        4.5802134327       22.0987116136
  H         5.0535906524        5.0104131702       24.0646327872
  H         4.6836188078        4.8378362255       25.6478407871
  C         3.5127352278        6.4169340136       24.8595414242
  C         6.0104088493        1.7662480977       29.0789710260
  C         8.5555687415        3.2565377720       22.0888540580
  H         7.9915696231        1.6019810361       23.1628384899
  C         8.9352108037        4.9445736785       20.8758136779
  H         2.7950405510        5.8902844145       24.2157963431
  H         3.6944407789        7.4370551370       24.4038719154
  C         2.7899030652        6.6204693803       26.2561026816
  C         6.0513540170        0.3059207604       29.3054516145
  C         5.5989974694        2.5469719708       30.2420155766
  C         8.9587061384        2.5725985940       20.8464183862
  C         9.2039454427        3.8819003879       20.0721237740
  S         9.2130252492        6.3809222393       20.1533880722
  H         1.9527085736        7.2858125040       26.1151500945
  H         3.4594351047        7.1013683428       26.9207628878
  C         2.2599371398        5.2731564644       26.7632455965
  N         6.4757121970       -0.6454227134       28.3683334287
  C         5.6702454486       -0.3074790677       30.4700170909
  C         5.2214067320        1.8496382324       31.4408422937
  H         5.4158108257        3.6137765023       30.2304346327
  C         7.8701286076        1.7793449190       20.0199898773
  C        10.1603903791        1.6816802745       21.0522317242
  C         9.7325483254        4.3013713128       18.7977944089
  C         9.6877752915        5.6746562838       18.6459292191
  H         1.7293523673        4.7842586796       25.9365420751
  H         3.0277167681        4.6770795430       27.1095804769
  C         1.2698722572        5.3373735585       27.9324558481
  S         6.3306340747       -2.1243173724       29.0572447884
  N         5.8635092690       -1.7044936480       30.4725912998
  C         5.2812734832        0.3736456319       31.5887902365
  H         4.9360630431        2.5270586096       32.1972812025
  H         7.9337399472        0.7184264002       20.2746804082
  H         8.2436145693        1.7250302944       18.9730347211
  C         6.4558577216        2.4200577019       19.8557313686
  H        10.5163342371        1.2163950675       20.1540749605
  H         9.9892003657        0.8242932138       21.6292106348
  C        11.3349072442        2.5380766719       21.5915058082
  H        10.0689873657        3.5210374168       18.1200958084
  C        10.0640807776        6.4620284523       17.3926630801
  H         0.6021313747        4.4360815802       27.8300339029
  H         0.6841317821        6.2248578383       27.6934018456
  C         1.8722005048        5.5343379234       29.3235434004
  C         4.9818314590       -0.3582596631       32.7948557722
  H         6.5208059934        3.4704965108       19.8802075855
  H         5.9131137235        1.9565649782       20.7087237204
  C         5.9226483504        1.8933356822       18.5393633394
  H        11.0778490237        3.2453201900       22.3914603962
  H        11.6467757384        3.1443385954       20.7791699986
  C        12.5839101513        1.7886147821       21.9440424285
  C        10.1049435561        7.9091586343       17.3323549918
  C        10.4981823972        5.7235279516       16.2463606766
  H         2.6210958769        4.8237565535       29.3633390689
  H         2.4689725070        6.4671124044       29.4145785190
  C         0.8849802121        5.4292826143       30.4976837676
  H         4.9821106980       -1.4201175458       32.6781246913
  C         4.6516302763        0.0418703567       34.0832350028
  H         5.9327581708        0.7959365930       18.4695502249
  H         6.5619894365        2.3603367002       17.8255876502
  C         4.5613250394        2.5572751759       18.2185175132
  H        12.3940539517        1.1245018272       22.7651409528
  H        12.9747711835        1.3639253070       20.9526733519
  C        13.6009620091        2.8951278455       22.3969040611
  N         9.9107568369        8.8216423202       18.3165722448
  C        10.4322368381        8.5283328693       16.1496750078
  C        10.8404006512        6.3797822426       15.1004811049
  H        10.2420389873        4.6515102424       16.1497714435
  H         0.3191552269        4.5488695670       30.4168559349
  H         1.5149185999        5.3252622347       31.3558622824
  H         0.3166036654        6.3587159905       30.6059433601
  S         4.2352292759        1.5975973396       34.6030757257
  C         4.5659337772       -1.0399944807       35.0812255194
  H         4.5728465839        3.6234467803       18.5943107688
  H         4.4731758419        2.6453990297       17.1127375869
  C         3.4895130690        1.8264668666       18.9764852266
  H        13.1383508694        3.6840694201       22.9515619003
  H        14.0983229589        3.2810214496       21.4725460073
  C        14.7598020710        2.2995726387       23.2850575961
  S         9.9128265035       10.3236426793       17.6744072325
  N        10.6497075729        9.8999369014       16.3072439719
  C        10.7713525794        7.8003189144       14.9538551698
  H        11.1974520075        5.7850005304       14.3245045652
  C         3.9675892850        0.8953844285       36.1608796823
  N         4.2376184435       -0.4328562561       36.2531886612
  O         4.7703121207       -2.2273433163       34.8409882795
  H         2.6927161502        2.6262594468       19.0583113461
  H         3.8764605998        1.3355864966       19.9220818577
  C         2.8437944302        0.7798310949       18.1262613482
  H        14.4621482820        2.2681558560       24.2502879175
  H        15.0274189197        1.3410502680       22.9356671621
  C        16.0425462932        3.1537777754       23.2345698663
  C        11.1596556131        8.5387172219       13.7605813776
  S         3.5368044522        1.8102829351       37.6537300040
  C         4.2323329503       -1.1786609729       37.5255272300
  H         1.9474752651        1.1830398959       17.6147299065
  H         3.4884367680        0.4780439981       17.3038882706
  C         2.1532985296       -0.3354630788       18.9219349599
  H        16.4900400782        3.0885412968       24.2678421935
  H        15.8409174860        4.1377878971       22.8507161984
  C        17.0048302270        2.4561645308       22.2841399780
  H        11.1852868201        9.5738009108       13.8484998360
  C        11.5753949688        8.0470219120       12.5174686502
  H         3.7036872259       -0.6347344294       38.2426277733
  H         3.6392575851       -2.0819282338       37.3856177695
  C         5.6048458190       -1.2764848450       38.1982573702
  H         1.1476440025       -0.6104863802       18.6740197100
  H         2.1762686172       -0.2567120289       20.0312913784
  C         3.0374101597       -1.6004057163       18.7748598566
  H        16.4705127274        1.7294633712       21.6459143161
  H        17.5490940841        3.1210720941       21.5998791955
  C        18.1117042348        1.6977074410       23.0445843800
  S        11.9139766327        6.4094290681       12.0484326869
  C        11.5547614969        9.0911846185       11.4848398759
  H         5.4290636166       -1.7530701484       39.1910638698
  H         6.3699001638       -1.9247697501       37.7390277121
  H         6.0282514687       -0.3234169193       38.3324862863
  H         2.9805001819       -1.9823611207       17.7350346259
  H         2.6541062442       -2.3171928312       19.5151406203
  H         4.0574840962       -1.2047246936       18.9103417627
  H        18.9283439221        1.2836818194       22.4442209485
  H        17.7140561550        0.9288375351       23.6997829455
  H        18.6359622608        2.3372328407       23.7016277710
  C        12.1432663620        7.2496479405       10.4712837782
  N        12.0243759088        8.5428974869       10.3952079602
  O        11.0594982410       10.2609392509       11.6489497101
  S        12.5682926338        6.3887889488        8.9853805446
  C        12.0646331850        9.4091368561        9.1894975027
  H        12.3520605586       10.4218634928        9.3825804065
  H        12.8905335520        9.1532851714        8.5732919528
  C        10.7576010482        9.3489775137        8.4349449190
  H        11.0726833151        9.1002118594        7.3997325533
  H        10.0806184488        8.5556763887        8.5972544740
  H        10.2148853674       10.3596586475        8.4606454577
  H         2.2015076955        0.9459374325       12.6071447160
  C         2.9887377608        1.7026026115       12.3587351443
  H         3.9092827049        1.0531732184       12.4603918193
  C         2.6238714448        2.3793643251       11.0920136910
  C         2.9579105651        2.7237978799       13.5113031123
  C         3.7100448121        2.5468088801       10.0933526597
  H         2.1753291879        3.2588143585       11.2218205773
  H         1.9463032737        1.7293838963       10.5488551008
  H         2.7405736993        2.2548929171       14.4604211562
  H         2.1197414130        3.4357097106       13.4003464322
  H         3.9393370876        3.2051093126       13.5687634976
  C         4.4481515326        1.2724943306        9.6333785459
  H         3.3772972950        3.0971575538        9.2368990751
  H         4.4791366977        3.2170388852       10.5306131503
  C         5.2955811801        1.6055456698        8.3669925347
  H         3.6649197258        0.6255959183        9.3622390611
  H         5.0727713078        0.8076526861       10.4539455192
  C         6.5142395290        2.5381185182        8.5649268924
  H         4.6062385585        2.0545896408        7.6503377442
  H         5.7087049803        0.6888306974        8.0047083835
  C         7.8259481191        1.9242148094        9.2223508602
  H         6.6536477212        2.9680882642        7.6153396625
  H         6.2186817570        3.4087448885        9.1396202303
  C         9.0092138766        2.9229241431        9.2988825409
  H         8.1662398869        1.0093868106        8.7326887985
  H         7.5166043187        1.7652504878       10.2405559131
  C         8.7035122833        4.2040688811       10.0268745451
  C         9.3389951228        3.6390047009        8.0120454922
  C        10.2022800298        2.1868104750        9.9132704667
  C         8.8870823040        5.3527136396        9.2510105307
  C         8.1708938731        4.5079797304       11.2757659310
  C         9.3719590154        4.9792147832        7.9969878532
  C         9.7968869900        2.9688567947        6.8810103737
  H         9.7894919580        1.4874016397       10.5406966899
  H        10.8995421202        1.6706238483        9.2016906936
  C        11.1068464154        3.0806984482       10.7964178457
  S         8.4230654556        6.7938557552       10.0362387702
  C         8.0930204515        5.8228250175       11.4780228321
  H         8.0690218121        3.6937306409       11.9641799714
  C         9.7826807632        5.6160627952        6.8400038626
  H         9.9072755228        1.9482829443        6.9239241921
  C        10.1636286887        3.6167544502        5.7411947793
  H        10.5315127379        3.6585745499       11.4890590950
  H        11.5330314546        3.8035442303       10.2424955497
  C        12.2361344579        2.3386509219       11.4496285444
  C         7.6761044451        6.5092628724       12.7374029684
  C        10.1547481115        4.9931009973        5.6321616590
  H         9.8987932466        6.7409665535        6.8411497509
  C        10.7355591887        3.2193553186        4.5499348709
  H        13.0317872500        3.0492671469       11.6266529570
  H        12.6648342901        1.5502068021       10.7900391000
  C        12.0022812507        1.7559906120       12.7907523489
  C         7.8218485964        7.8632172093       13.1136372784
  C         7.2882469247        5.6512408172       13.9094379559
  C        10.6545823931        5.6509354876        4.3754319767
  C        10.9622903039        4.2978183618        3.7169245573
  S        11.1250135726        1.6902847707        3.8143275254
  H        11.1351249469        1.0982029631       12.7668336592
  H        12.9100310549        1.1437767965       13.1078009651
  C        11.7725455413        2.7851711306       13.9358588498
  N         8.2535935345        8.8044404341       12.2682940677
  C         7.5167766879        8.3615015497       14.3490505326
  C         6.9457011386        6.1079555184       15.1527700871
  H         7.2462959542        4.6095690746       13.7860945005
  C        12.0491023648        6.3385290268        4.6296940428
  C         9.6891550065        6.6659796974        3.6970333981
  C        11.4907422766        3.9526834781        2.4746954384
  C        11.4971492766        2.5996100033        2.3119461355
  H        10.8792613452        3.3191237492       13.6208909211
  H        12.5748910587        3.4384833798       13.8495633359
  C        11.6521202709        2.1288248268       15.3826588290
  S         8.2503133295       10.2457976853       13.0147910348
  N         7.7025891298        9.7601697834       14.4284948592
  C         7.0983524067        7.5392960681       15.4466822650
  H         6.8371178361        5.3217795225       15.9208159589
  H        11.8910683222        7.2686353518        5.1844496215
  H        12.5124081629        6.7389983625        3.7483223568
  C        13.0933211075        5.3962734379        5.2419562689
  H         9.4572214939        7.3874794262        4.4320373705
  H        10.2301807707        7.1478737344        2.8823272207
  C         8.3920442326        6.0410528051        3.2471761831
  H        11.7199333754        4.7852429147        1.7953183864
  C        11.8271254639        1.8496259787        1.0531284798
  H        10.8160562273        2.5276015870       15.8877431697
  H        11.3433414821        1.1103778326       15.2992555281
  C        12.8587959100        2.0552056242       16.2136425896
  C         6.6789498509        8.1820527268       16.5870223423
  H        12.8183131334        4.8787143176        6.1658862679
  H        13.3408481098        4.5511925136        4.6453189993
  C        14.3847766133        6.2566267083        5.3404359553
  H         7.5026934367        6.5250532960        3.6825125532
  H         8.3778001694        5.0197701963        3.6639142133
  C         8.2126508291        6.0465422776        1.7677660575
  C        11.8700051964        0.4210833984        0.8553779040
  C        12.1809864992        2.6219363685       -0.1801096915
  H        13.5362176654        2.8774511246       15.8872815690
  H        13.4120656580        1.1501979943       16.2967638625
  C        12.4607600753        2.4115638325       17.6444568257
  H         6.7223538721        9.2352655477       16.6100664304
  C         6.3219599416        7.7655683569       17.8346093503
  H        14.2137890284        7.2809360820        5.6591029017
  H        14.8433048148        6.3762291633        4.3872534820
  C        15.4238662943        5.7816691022        6.4185727371
  H         8.3286060965        7.0010102799        1.2270961575
  H         9.1299990568        5.5104879154        1.4676809033
  C         6.9790463088        5.3269648340        1.3197006848
  N        11.4902948094       -0.5796739515        1.8231744888
  C        12.2004506706       -0.1152978755       -0.3807638163
  C        12.5676515104        2.0488878351       -1.3769927334
  H        12.4804901121        3.6533247172       -0.0095733672
  H        12.2156831549        3.4531937413       17.6775754501
  H        13.1913585628        2.1745901891       18.3787646522
  H        11.5184027993        1.8673374378       17.9911210128
  S         6.0221775482        6.1291383946       18.3674047226
  C         6.2137308966        8.8551497191       18.8979294348
  H        15.4748984905        6.4972229802        7.2032178661
  H        15.0303031607        4.7665191977        6.7773863564
  C        16.7421747651        5.3665310933        5.8711401603
  H         6.9475066824        4.2488503582        1.6083703594
  H         7.1629574471        5.3096460538        0.1970967352
  C         5.6706144411        6.0592444046        1.6457168161
  S        11.5968511635       -2.0721814147        1.1423599721
  N        12.0519486218       -1.4796595289       -0.3261652071
  C        12.5859239012        0.5290357338       -1.5580357936
  H        12.9982790885        2.6795081169       -2.1699668108
  C         5.6706861769        6.8530561939       19.9849855740
  N         5.8554303932        8.2446557212       20.0254049604
  O         6.3479200141       10.0584040120       18.7348711294
  H        16.6829748043        4.6056467613        5.1384261909
  H        17.2355566518        6.1420765171        5.3916177904
  C        17.7097389470        4.8551330196        6.9398041163
  H         4.9476715385        5.5506785375        1.0517472444
  H         5.4359723963        5.7640017624        2.6928310637
  C         5.5598203055        7.6343011057        1.5031411027
  C        12.9052923116       -0.1250525775       -2.7667395829
  S         5.3417568329        6.0268427758       21.5055756843
  C         5.9119863244        9.0135058517       21.2439199745
  H        17.1850120223        4.2006437932        7.6438103829
  H        18.3198742250        4.1528700973        6.3194862244
  C        18.6624836165        5.8853572876        7.5171070991
  H         6.0332257414        7.8028160014        0.5283019093
  H         6.1950261523        8.1332908420        2.2826855854
  C         4.1908878940        8.2447011849        1.7113436928
  H        12.5633017159       -1.1675111908       -2.8687866039
  C        13.3920207119        0.2599145389       -3.9680760709
  H         5.3631194537        8.6161780619       22.0532818487
  H         5.3619999048        9.8863834882       21.0790269503
  C         7.2660443262        9.5215503755       21.6874716120
  H        18.7184597700        5.8226547617        8.5994745222
  H        18.2315302567        6.8067718755        7.2559660770
  C        20.0564106235        5.9785945179        6.9401677025
  H         3.8439279790        8.5328017603        0.7255696741
  H         3.4236398886        7.4953434267        2.0095355959
  C         4.2818345345        9.4456418664        2.6039374469
  S        14.0007656532        1.8090423138       -4.3331078375
  C        13.5937780909       -0.7018967180       -5.0368656932
  H         7.1767453212        9.8277108119       22.6735346072
  H         7.5876642293       10.3483103125       21.0446104025
  H         8.0599751120        8.8290917397       21.7563524399
  H        20.6704508128        6.4922433769        7.6788447156
  H        20.4504402950        5.0284159851        6.6985455273
  H        20.0564450175        6.4710928023        6.0342517527
  H         5.0362596751       10.1353397704        2.4221456775
  H         3.3308346888       10.0456603837        2.5492619480
  H         4.2834248434        9.2082899135        3.6473462063
  C        14.1534773932        1.2573615004       -6.0408608502
  N        14.0652408259       -0.1011464117       -6.1511210637
  O        13.4577088559       -1.9056801173       -4.9061667188
  S        14.5867209952        2.2286360064       -7.4519080439
  C        14.3142283747       -0.8513201145       -7.3747651524
  H        14.8097036156       -1.7159117375       -7.1985803622
  H        15.0046406303       -0.3102616640       -7.9591446411
  C        13.1173218831       -1.2375919494       -8.2164701457
  H        12.7857628156       -2.2580936487       -8.0232846898
  H        13.3718586130       -1.1695894734       -9.2873806307
  H        12.3262703432       -0.5546791781       -7.9311980319
