352
 i =    25500, time =    12750.000, E =        97.2520480944
  H        10.6850168627        4.7052821730       31.4232807859
  C        10.7394142525        5.7551716121       31.8432798565
  H         9.7140127373        5.9116902163       31.9788931204
  C        11.3513598031        6.8528051939       31.0047966063
  C        11.5327018011        5.4317283360       33.0863040207
  C        11.7226183312        6.3463267589       29.6232665254
  H        10.6923525109        7.7025157376       30.8232104633
  H        12.2888534253        7.2391271348       31.5071068247
  H        11.1062921642        4.6036998446       33.4200094755
  H        12.5483589606        5.2966440111       32.8000101042
  H        11.2743929464        6.0990779620       33.8339869840
  C        10.5070476831        6.4180500493       28.6987247237
  H        11.9724728729        5.3018707495       29.5397061163
  H        12.4474402030        7.0306554475       29.2032346720
  C        10.8927434029        6.1577038394       27.2188018692
  H         9.8439266600        5.6929746886       29.0807845823
  H        10.1480869648        7.4518947471       28.7741641271
  C         9.8309713120        5.3130623003       26.3890867582
  H        11.6798506500        5.4896278595       27.2599335146
  H        11.3534596066        6.9482365671       26.6375950590
  C         8.4847232553        6.0120759778       26.1778044050
  H        10.2838456457        5.0699783586       25.4324083971
  H         9.6248883078        4.3826329248       26.9899763996
  C         7.3342960753        5.1507020235       25.5647177216
  H         8.2844916787        6.3458263234       27.2197571165
  H         8.6635809257        6.8565269307       25.6149495286
  C         7.0194253170        3.8099167249       26.2303117448
  C         7.8174816152        4.4282197539       24.2490987063
  C         6.0354574845        5.9923268483       25.2152668172
  C         7.2445758462        2.7089323950       25.3867919866
  C         6.4422718145        3.4845289259       27.4675189793
  C         7.7958178908        3.0810582191       24.2214792727
  C         8.1540268124        5.0338147116       23.0502402284
  H         6.2656801824        6.8365737784       24.6547332135
  H         5.6459144097        6.4808878459       26.0789842779
  C         4.7607241673        5.1915541538       24.7638563246
  S         6.8719568864        1.2455625937       26.2237693369
  C         6.3504905492        2.1439572283       27.6053960806
  H         6.2770087512        4.2600830874       28.2085098567
  C         8.0713662223        2.4503752026       23.0950529922
  H         8.2979866683        6.1128785761       23.0567554350
  C         8.5547841843        4.3761243431       21.9182090255
  H         4.9657978797        4.6920662413       23.8170958218
  H         4.4462603922        4.5195213188       25.6017955122
  C         3.5089133495        5.9867316982       24.4123954764
  C         5.8534584694        1.5132713629       28.8232633163
  C         8.5530887299        3.0192661460       21.8684230367
  H         7.7987485811        1.3785768090       23.1070557166
  C         8.9699327433        4.7563106293       20.6719960599
  H         2.8965352834        5.4312779752       23.7123140994
  H         3.8719751281        6.9573791965       23.9212595737
  C         2.6221764897        6.3585454805       25.6596982873
  C         5.9515582408        0.0929341988       29.0185946634
  C         5.5005015654        2.2927459516       30.0285993324
  C         9.0234982210        2.2711550622       20.6727533331
  C         9.1795176029        3.5794768132       19.9264097854
  S         9.4867559124        6.2240128800       19.9440587946
  H         2.0379076855        7.2051101947       25.3424826598
  H         3.2286726209        6.8221098348       26.3976590424
  C         1.6984528249        5.1569437064       26.2050524553
  N         6.2389591401       -0.8481141169       28.0889691394
  C         5.7545663924       -0.4671827394       30.2742970682
  C         5.2809293057        1.7064502822       31.1899923510
  H         5.4342285532        3.3494149066       29.9998903219
  C         7.9893016608        1.3839777783       19.9427187311
  C        10.4112977574        1.6057901383       20.8403534093
  C         9.5472375730        3.9697437831       18.5990490941
  C         9.8406112406        5.3361792894       18.5164375525
  H         0.9401146507        4.9343422344       25.4881079621
  H         2.1823527693        4.2508793877       26.3927010694
  C         1.0002711227        5.4177677210       27.5360369127
  S         6.1165522276       -2.3884581809       28.7243079823
  N         5.7631160383       -1.8600163410       30.2222186490
  C         5.3456597703        0.2543684690       31.4048247349
  H         5.1966457977        2.3279059950       32.0617292031
  H         7.7052530586        0.4919801991       20.5486913859
  H         8.4292014665        0.9794291494       18.9821284758
  C         6.8174874216        2.1437109180       19.3534364739
  H        10.5803067958        0.9962957355       19.9783703876
  H        10.3156615508        0.8378136318       21.6604809056
  C        11.6254571327        2.5765115590       20.8539663740
  H         9.6386954547        3.1996177148       17.8026972957
  C        10.1409815667        6.0657594735       17.2281880538
  H         0.3180188611        4.5772038041       27.7644511173
  H         0.3506339228        6.3158068159       27.4047761656
  C         1.9625555794        5.6522230822       28.6789089969
  C         5.2052633792       -0.3938147913       32.6746971630
  H         7.0686521059        2.6712494696       18.4983302348
  H         6.4788764129        2.8386340914       20.0828024967
  C         5.6531520289        1.1596008173       19.0346554981
  H        11.4260245886        3.2597695802       21.6714024538
  H        11.6862307151        3.2048575238       19.9094326399
  C        13.0193073189        1.9303108570       20.8643299393
  C        10.1251760617        7.4160513185       16.9845389040
  C        10.2289118463        5.2162224133       15.9941893376
  H         2.8460310300        5.0027423808       28.5912167967
  H         2.5065733272        6.5700588113       28.6359151245
  C         1.2920046713        5.5113974690       30.0588029611
  H         5.5407788248       -1.3777928648       32.6426106705
  C         4.7874498219       -0.0375115952       33.9235191293
  H         5.3939267906        0.6297478058       19.9195989176
  H         6.0491172843        0.3782209573       18.3166105332
  C         4.3232429164        1.7551818070       18.4436527786
  H        12.9479858025        1.2444603618       21.7373334392
  H        13.1609699913        1.4920584968       19.8841999310
  C        14.0431533645        2.9353947675       21.1850396700
  N         9.8109067342        8.4535246649       17.9181557118
  C        10.3961040022        7.9485133130       15.7812848621
  C        10.4647223074        5.7596009334       14.7406051357
  H         9.9371737113        4.1541537461       16.1049939815
  H         0.6103671330        4.7151612457       30.1012069794
  H         1.9150565565        5.2053622766       30.9355228132
  H         0.7917447774        6.4833185789       30.2537242892
  S         4.3558629171        1.5447726074       34.5300540929
  C         4.6916806664       -1.1189995885       34.9659389612
  H         4.1028073254        2.7368361574       18.8565509261
  H         4.3872642734        1.9459003351       17.3334299545
  C         3.1675147423        0.8775998305       18.6723810315
  H        13.7314102814        3.5456329422       22.0915981298
  H        14.3515166216        3.5880277523       20.3350997937
  C        15.3418072416        2.2050647305       21.6099168540
  S         9.9068956535        9.8831906168       17.2040221467
  N        10.3401271712        9.3304550410       15.7870078565
  C        10.6144387406        7.2289438388       14.5700210941
  H        10.5327989054        5.0780465713       13.9240204175
  C         4.3703474051        0.7456407099       36.1362994893
  N         4.4412242495       -0.5975097897       36.1899419029
  O         4.9876809090       -2.2898817180       34.6577517337
  H         2.2761838421        1.4738812362       18.7904895056
  H         3.2839596791        0.4570291973       19.6920015186
  C         2.9951099713       -0.1560831460       17.6357109336
  H        15.1853326361        1.1444824008       21.9001327861
  H        16.1254440498        2.2146702377       20.8754989945
  C        15.9098163612        2.8947617012       22.8332658295
  C        10.7747011525        7.9160616100       13.3414746122
  S         3.9351276501        1.6067221098       37.6250143818
  C         4.4289200964       -1.3669989887       37.3948834805
  H         2.4103530985        0.3897321617       16.8719527443
  H         3.9824962177       -0.5686555875       17.2119132921
  C         2.2519874811       -1.3260801127       18.2472119656
  H        15.2832919603        2.8837744480       23.7474680664
  H        16.0167734593        3.9390474370       22.5415073790
  C        17.3067242896        2.3102994493       23.0923623340
  H        10.3568013350        8.8983082467       13.2731948529
  C        11.3609694471        7.4965807997       12.1447196389
  H         3.6111404571       -1.0175298422       37.9911021893
  H         4.3947341725       -2.4354944033       37.1568122122
  C         5.7220459358       -1.2368172708       38.1141956093
  H         1.3965872647       -0.8989020634       18.7951454589
  H         2.9470118234       -1.9630530271       18.8810134641
  C         1.7069725224       -2.2853143046       17.2704537181
  H        17.6082677032        2.6490131797       24.1235938412
  H        17.2963078171        1.2006938568       23.1510086504
  C        18.3623670491        2.7698070499       21.9998696422
  S        12.0165888736        6.0261582349       11.7641914977
  C        11.4606298210        8.5779290699       11.0801009354
  H         6.1203076619       -2.1685601570       38.5835084560
  H         6.4377190639       -0.7102463994       37.5158056697
  H         5.6044894515       -0.6679845058       38.9789286288
  H         1.0488299920       -2.9304701039       17.8567447578
  H         2.4925323715       -2.8497595708       16.8631505015
  H         1.3126512813       -1.7360811519       16.4320174354
  H        18.0893311540        2.7071562264       20.9489953441
  H        19.1639870231        2.0046806344       22.1289374208
  H        19.0215854155        3.6472598368       22.1640386597
  C        12.2062397743        6.6348914017       10.1133033189
  N        11.9934898510        7.9593210721       10.0349379007
  O        11.2184507522        9.7572507137       11.2407664748
  S        13.1118998033        5.8407304330        8.8106810469
  C        12.3289448779        8.7844912666        8.8994636482
  H        12.5338171887        9.7943320203        9.2050879889
  H        13.2746128417        8.5822290223        8.4867188065
  C        11.3037804800        8.6457630352        7.7823820826
  H        11.5282895543        9.4644636387        7.0171094975
  H        11.3954442501        7.7712191685        7.1846979111
  H        10.2366701546        8.7088097126        8.0805248089
  H         4.2388456660        1.1213591497       12.4649304393
  C         3.7237737088        2.0847385177       12.5614750243
  H         4.4702558146        2.8387037834       12.7200046935
  C         2.8995424888        2.1834423589       11.2906895773
  C         2.9661536374        2.1644086659       13.9153364145
  C         3.7091956027        2.4484822880       10.0637944788
  H         2.2000544662        2.9896122919       11.5289968427
  H         2.3609307021        1.1914898969       11.2551535066
  H         2.3089659259        1.3339693758       14.0015739239
  H         2.4974125537        3.1560338409       13.9340321498
  H         3.6186670515        2.1780845368       14.8032886990
  C         4.4646023318        1.1523651221        9.6134331366
  H         3.1185638622        2.9740737866        9.4229142364
  H         4.4776342110        3.1727891849       10.3294156151
  C         5.2381558547        1.2973685112        8.2695375427
  H         3.7856543584        0.3039188855        9.6440536458
  H         5.2458359967        0.8912011348       10.2750819699
  C         6.4462658566        2.2205956116        8.3530031056
  H         4.5254122482        1.7866362463        7.5730373504
  H         5.5477701741        0.3027544944        7.8873024471
  C         7.6692850682        1.5407532304        9.0734504613
  H         6.6215693722        2.6724687733        7.4041892517
  H         6.2610710339        3.1118720308        9.0033568880
  C         8.9342442194        2.4219240162        9.1945752256
  H         7.8612236232        0.6286614758        8.4663426363
  H         7.3724878358        1.2672141657       10.0489949136
  C         8.4331124840        3.7255515864        9.8633996839
  C         9.4006889826        3.1843487857        7.9906201382
  C        10.1461015337        1.8022167662       10.0317166690
  C         8.7375509177        4.8333190292        9.0886942221
  C         7.9281769921        4.1058540388       11.1608472824
  C         9.3157709962        4.5267946309        7.8779249187
  C         9.9591124191        2.5645096711        6.8808408702
  H         9.7673407323        1.5564648248       10.9856965340
  H        10.6312830566        0.9407309117        9.5094405634
  C        11.3317911433        2.7867156382       10.1845722164
  S         8.2239733955        6.3457735384        9.7795868983
  C         7.8646290218        5.4718996020       11.2279935447
  H         7.6869433327        3.3562911243       11.8794001050
  C         9.6527807605        5.1587658128        6.7316038045
  H         9.8831414542        1.5014139873        6.7994429914
  C        10.3942215817        3.2032286161        5.7724174459
  H        10.9728826491        3.6625010169       10.7344462013
  H        11.7461693555        3.1340314349        9.2444903362
  C        12.5149804890        2.1931800031       10.8695576456
  C         7.5836689951        6.2472935155       12.5037203602
  C        10.2330674106        4.5372134101        5.6121122800
  H         9.4562009291        6.2225048588        6.7948190476
  C        10.8903481973        2.7880027960        4.5601651824
  H        13.4288895171        2.8460169871       10.8442772049
  H        12.9156085069        1.2733986688       10.4396134953
  C        12.1855572599        1.9560410277       12.3689068891
  C         7.5603378779        7.6938084793       12.7143819864
  C         7.2466592535        5.4231474150       13.7362533017
  C        10.5953234035        5.2258536132        4.3302530251
  C        11.0203634216        3.9057656438        3.7036211378
  S        11.1483711309        1.3062917964        3.7660883911
  H        11.6650292244        2.8832081131       12.6016120929
  H        11.5347025003        1.1578048279       12.4359381815
  C        13.4487811402        1.7790727140       13.1868861829
  N         7.7252905981        8.6480186346       11.7437430442
  C         7.3155038862        8.2135491909       13.9605164975
  C         6.9095693887        6.0038393872       14.9369003370
  H         7.1023470304        4.3547535126       13.5728294348
  C        11.8475762229        6.1263829013        4.4704927637
  C         9.4154148875        5.8664769427        3.4490190245
  C        11.3402451393        3.5517988060        2.3748175201
  C        11.4430162094        2.1490288637        2.2404202111
  H        14.0517093179        2.6919746676       13.3071963578
  H        14.1594606751        1.1554668834       12.6211839252
  C        13.1692079831        1.2482896512       14.6063997413
  S         7.7876264281       10.1456183952       12.4750267581
  N         7.4334108813        9.6193400815       14.0232196415
  C         6.9812691370        7.4776912335       15.1348965428
  H         6.5889098093        5.3205977053       15.7258214157
  H        11.6498760250        6.8452043915        5.2451852781
  H        12.1605167869        6.6545450646        3.5576398165
  C        13.1205301199        5.2686512349        5.0056590042
  H         9.2552614014        6.8595601596        3.9011775697
  H         9.7847389525        6.1399349437        2.4411815699
  C         8.1586361025        5.0227708315        3.2539345043
  H        11.5336119263        4.4046215427        1.7919075855
  C        11.9100363417        1.4311220930        1.0261003237
  H        12.5529196680        0.2700720212       14.5430309556
  H        14.1027238456        1.2030370118       15.0842962643
  C        12.4466260227        2.3391351298       15.4366076116
  C         6.7729336865        8.1790925708       16.3274015444
  H        12.8706514956        4.7919504572        5.9879927692
  H        13.3503189530        4.4576702311        4.2659022721
  C        14.4000257736        6.1781977064        5.2311721616
  H         7.8550470566        4.6495126386        4.2162940742
  H         8.3537213695        4.1331689222        2.6636827838
  C         7.0522550307        5.9528464936        2.7761669350
  C        11.9550156051        0.0552949423        0.8916389800
  C        12.2994262654        2.2139867017       -0.1556486152
  H        11.3723860360        2.2079398355       15.3411964103
  H        12.6211528292        3.2499395950       14.9078543382
  C        13.0317941332        2.6580765999       16.8081513056
  H         6.6377411428        9.2495176897       16.3029415222
  C         6.4299082090        7.7520317551       17.5900864758
  H        14.2109493213        6.9890635367        5.8310848943
  H        14.7948471734        6.5682804461        4.2759334076
  C        15.4223042675        5.2213697821        5.8204887291
  H         7.0836154265        6.7987783170        3.4265430431
  H         7.2662957801        6.3634512340        1.7333299996
  C         5.6214895512        5.2958548059        2.7923049709
  N        11.7137202630       -0.8399087242        1.9371506007
  C        12.2224830621       -0.6536140685       -0.2825465344
  C        12.6087174411        1.5593698720       -1.3547827316
  H        12.2263995354        3.2710387166       -0.0852771548
  H        14.1268060431        2.9000684851       16.8156497266
  H        12.9091342790        1.8420398386       17.4811637056
  H        12.6310848461        3.5794530666       17.2290182922
  S         6.2212018228        6.1111622119       18.1296270356
  C         6.2703059704        8.7411560708       18.6922376144
  H        15.0788115214        4.5716528916        6.6300156163
  H        15.6180503529        4.6148091876        4.9273098589
  C        16.6247577185        5.9811244372        6.2091426423
  H         5.2019728319        5.5475230252        3.8057968625
  H         5.7408983374        4.2782385381        2.6297387550
  C         4.7151012798        5.9295068275        1.7886426245
  S        11.9190509120       -2.4125859469        1.4297244537
  N        12.3354795001       -2.0483585509       -0.1367796139
  C        12.5467172313        0.0540382506       -1.4821140263
  H        12.8418351349        2.3137344548       -2.1382682088
  C         5.8469899616        6.7890400377       19.7279656446
  N         5.8474449725        8.1599120488       19.8278634715
  O         6.4197957432        9.9553898535       18.5873200956
  H        17.0962058992        6.3465279967        5.2889650296
  H        16.2591994018        6.8996159419        6.6437625470
  C        17.5263339821        5.1197825247        7.1439422626
  H         5.1572329344        6.0644492588        0.7993088241
  H         3.8986678074        5.2151605947        1.6870490433
  C         4.2128140561        7.2387124788        2.3816288853
  C        12.8349374485       -0.6696992845       -2.6847342897
  S         5.5277920658        5.7904921808       21.1108836392
  C         5.7389071670        8.8299629045       21.0959184469
  H        16.9980101966        4.9609059040        8.1296016918
  H        17.6001492561        4.1564624781        6.5910149161
  C        18.9296001460        5.7766929470        7.3805764008
  H         4.9949032965        7.6134579563        3.0217457530
  H         3.3613431031        6.9817121445        3.0166731329
  C         3.7186259416        8.3494421879        1.4167209735
  H        12.8326420532       -1.7555919942       -2.5885659734
  C        13.3485491887       -0.2398026064       -3.9240029474
  H         5.0385107204        8.3822301893       21.7925686335
  H         5.2077586896        9.7426306918       21.1405733782
  C         7.1183584808        8.9730429668       21.7435056035
  H        19.3727766505        5.3155903193        8.2662100734
  H        18.7445542593        6.8202215293        7.7286677221
  C        19.8493001277        5.6952291476        6.2064208244
  H         4.2164118587        8.1836267212        0.4301310899
  H         2.6627683954        8.4202746771        1.1948444680
  C         4.1851150493        9.6877519901        1.8887343388
  S        14.0396977392        1.2710866393       -4.2863903398
  C        13.4827535532       -1.2873612504       -4.9413349073
  H         7.8254997235        8.1085874560       21.5456010346
  H         6.8592976359        8.9792212561       22.8197698289
  H         7.5976066734        9.9103881640       21.5362710542
  H        20.8524072312        5.4803356339        6.5335317806
  H        19.4951391914        4.8116554619        5.5015243406
  H        19.8747721390        6.5035337944        5.5227112165
  H         3.2718030318       10.2602091854        2.1629223425
  H         4.8094720758        9.7435033783        2.7837522288
  H         4.8105090345       10.1425029764        1.1467184875
  C        14.3561865325        0.5724295468       -5.9174688096
  N        14.0913885057       -0.7457274815       -6.0195333189
  O        13.2636009170       -2.4537320975       -4.7021265366
  S        15.2158915164        1.3985496076       -7.2092344028
  C        14.3723309238       -1.5564558223       -7.1833244743
  H        14.4131764546       -2.5865501708       -6.9700892099
  H        15.2981155283       -1.2206511883       -7.6233347226
  C        13.2243355299       -1.5775415958       -8.1336095001
  H        13.1717990887       -0.6764666858       -8.8100539034
  H        12.2330185420       -1.7063528587       -7.6694470750
  H        13.2239385172       -2.4115164086       -8.7883770634
