352
 i =    61600, time =    30800.000, E =        97.8394347354
  H        12.2334649205        5.4899145644       31.8741078881
  C        11.1397047933        5.6662773455       32.1507728935
  H        10.7381614797        4.6795435101       32.1813787529
  C        10.6363569315        6.4497031203       30.9972978770
  C        11.0259604930        6.4577851822       33.4994970149
  C        11.0943553852        5.9039242164       29.6353757034
  H         9.5687614925        6.5443511146       30.9595962510
  H        10.9746585989        7.4791248247       31.2095761608
  H        11.5366509792        6.1111406791       34.3612970547
  H        11.3789444586        7.4790113560       33.3012337914
  H         9.9614997267        6.5511587508       33.8545859478
  C         9.9751871844        5.8471557958       28.6449696820
  H        11.7363398282        4.9634424231       29.6597227730
  H        11.8311005054        6.7516904103       29.3167508428
  C        10.3110882886        5.8540004406       27.1430282506
  H         9.5196375663        4.8437978159       28.8621605625
  H         9.2299752526        6.6607534312       28.8089202159
  C         9.3213085623        5.1472786885       26.2721897007
  H        11.0823654563        5.1370152310       26.8656207635
  H        10.6876175799        6.7878043822       26.7744101751
  C         8.1407593624        5.9892650987       25.9470755224
  H         9.9673912126        4.7278639238       25.4293954165
  H         9.0816856642        4.2545276381       26.7777295485
  C         7.0864519483        5.2417013837       25.0797341020
  H         7.6345960196        6.2099588790       26.9431069347
  H         8.4033771917        6.9160318527       25.3730050051
  C         6.6873810774        3.9012259389       25.8031685080
  C         7.5729216596        4.4397885306       23.8793667314
  C         5.8400544926        6.1509787803       24.8484916094
  C         7.0178967334        2.7643407057       25.1027858584
  C         6.1239848635        3.5758676368       27.0688700046
  C         7.5218299745        3.0768853831       23.8519356658
  C         8.1653966224        4.9853915310       22.7902139507
  H         6.1513473493        6.8413915384       24.1149108591
  H         5.6120768290        6.7825785820       25.6887037609
  C         4.6376552018        5.4347663076       24.2558448749
  S         6.5587458098        1.2769247607       25.8495224799
  C         6.0658340418        2.2346617138       27.2793081419
  H         5.8711177873        4.3471498432       27.7881096330
  C         7.9153725469        2.3686927861       22.7308067337
  H         8.3857037329        6.0117473945       22.6996769093
  C         8.4511850394        4.2782823773       21.6555592886
  H         4.7608968421        5.4622419207       23.1744100285
  H         4.6458248352        4.3642384700       24.5543316141
  C         3.2172328802        5.9401273701       24.6953400428
  C         5.7245375423        1.5821665271       28.6015389216
  C         8.3654271652        2.9402255586       21.5493401188
  H         7.7617448837        1.2612550739       22.7800201228
  C         8.8923779873        4.6510699633       20.4358640654
  H         2.4697827073        5.3609361459       24.1309862123
  H         2.9564475924        6.8736688007       24.1869106524
  C         2.9583200533        5.8975467142       26.2139125655
  C         5.7212145902        0.1934184706       28.9253799491
  C         5.5085473887        2.3767852174       29.8580596593
  C         8.7928931265        2.2366314099       20.3244691380
  C         9.1682326862        3.5600003310       19.6351120384
  S         9.1168166071        6.1107046250       19.5635036349
  H         2.1683425949        6.4350162777       26.5736880078
  H         3.8882655173        6.2391665858       26.7332145101
  C         2.5521313142        4.5303371366       26.6468637261
  N         5.9516442039       -0.7918894519       27.9603138586
  C         5.4863845596       -0.3436171373       30.1763587377
  C         5.1110624991        1.8193382457       31.0727072170
  H         5.5148541997        3.3999876475       29.7949535644
  C         7.6515851279        1.4564029380       19.6283961764
  C         9.9883650242        1.3396585170       20.6028355646
  C         9.7618946871        3.9304678494       18.3477951169
  C         9.8191241429        5.2917809885       18.2190085393
  H         1.8667332883        4.0363440673       25.9651708455
  H         3.4126012654        3.9133491763       26.7997765199
  C         1.7816146783        4.6284994957       27.9446589016
  S         5.7625397868       -2.2868092297       28.6372341302
  N         5.5628135447       -1.7147383716       30.1322283526
  C         5.1548421959        0.3860102651       31.3372496259
  H         4.8281744480        2.4575089808       31.8993585637
  H         7.3356787889        0.7037822601       20.3330059511
  H         8.1463807227        0.9874868624       18.7500801175
  C         6.4453249235        2.3042321127       19.0500345148
  H        10.0801646096        0.5795086770       19.8529500525
  H         9.8803670010        0.9251246695       21.6165433272
  C        11.2743022408        2.0921353693       20.6855057972
  H        10.1826688202        3.0746053303       17.7566790405
  C        10.1350606632        6.0772339301       16.9353824818
  H         1.5595231377        3.6067161597       28.3842214197
  H         0.8304447903        5.0938212444       27.8427884501
  C         2.5409237881        5.2557171770       29.1159765618
  C         4.9010771089       -0.2985212054       32.4973608432
  H         6.8945266281        3.1934308942       18.5481589924
  H         5.7672937663        2.7424911694       19.7801234837
  C         5.6511646601        1.5636908625       17.9071375431
  H        11.1981755859        3.1148936942       21.0140607759
  H        11.5727248763        2.1984532937       19.5918583451
  C        12.3458666372        1.3530339215       21.3473382252
  C        10.1317549885        7.5099219975       16.8441019492
  C        10.2917655877        5.3738406782       15.6774024418
  H         3.4148899933        4.6650698225       29.3033518405
  H         2.7804454487        6.2228154875       28.7331080432
  C         1.7006357960        5.2832624138       30.3221882440
  H         5.1464239244       -1.3886480984       32.4737753744
  C         4.5360990055        0.1253735985       33.7693432319
  H         5.5572046043        0.4585984953       18.0178305941
  H         6.0149641922        1.6392914588       16.9428873500
  C         4.1771480413        2.0195074000       17.7798354679
  H        11.9738287697        0.7706294666       22.1972573912
  H        12.8822645274        0.6639401273       20.7141679502
  C        13.3757169082        2.1841039549       21.9531938437
  N         9.8536971501        8.3324929249       17.8875370898
  C        10.4450416486        8.1680954454       15.6883349800
  C        10.5919896885        6.0534869212       14.4940499665
  H         9.9755784678        4.3080632389       15.6650709250
  H         1.1548083579        4.3274567440       30.5880428182
  H         2.2815238409        5.4921704635       31.2037299598
  H         0.9818819748        6.0555582963       30.1211561599
  S         4.1843814525        1.7048521241       34.2979428633
  C         4.3744354501       -0.9223807775       34.8273356264
  H         4.1522387826        2.8981747606       18.4669086098
  H         3.9601799518        2.3093396442       16.7971317683
  C         3.1473278308        0.9085972549       18.3023999161
  H        13.0245263348        2.8553820806       22.7076642901
  H        13.8524874726        2.6892928794       21.1738400856
  C        14.5020750194        1.2882269195       22.5415307812
  S         9.9172412586        9.8342754151       17.3373554234
  N        10.4484176359        9.5647637065       15.8509703591
  C        10.7537736902        7.5241924213       14.5045192096
  H        10.6008694550        5.4820234084       13.5991552376
  C         3.9035842571        1.0317165848       35.9066211380
  N         4.0628406286       -0.2952571171       35.9775611495
  O         4.5516455619       -2.1244918630       34.6506510434
  H         2.1647160412        1.4030484209       18.6310880588
  H         3.6131233556        0.4357385225       19.1863615909
  C         2.9197415005       -0.1825202886       17.2467927629
  H        14.1210090957        0.6122762692       23.2989305082
  H        15.0046735893        0.7913682632       21.6803183607
  C        15.5283959346        2.2398917188       23.1082730110
  C        11.0948932047        8.3465812305       13.3685086520
  S         3.3753598430        1.9874026857       37.2877846214
  C         4.0031696010       -1.0578375215       37.2390022674
  H         2.3195674651        0.1962209278       16.5050288890
  H         3.9360204660       -0.3668267305       16.8594800248
  C         2.2854669843       -1.4026186315       17.7381223449
  H        15.8015675211        2.0156030770       24.1327226761
  H        15.0956192149        3.3379989696       23.1186640856
  C        16.8478785901        2.4647505116       22.2647919764
  H        10.9855053528        9.3992559962       13.4220418161
  C        11.5248997103        8.0089978186       12.1072094923
  H         2.9515422590       -1.0423542163       37.5643968858
  H         4.2364498906       -2.0795783910       36.9858479920
  C         5.0394027907       -0.7140937494       38.2196338073
  H         3.1476972922       -2.0009268055       18.0180548168
  H         1.7280429559       -1.9191150010       16.9738430303
  C         1.3520848500       -1.2395054428       18.9596068417
  H        16.6132690553        2.5379821737       21.1896914604
  H        17.2176754986        3.4783400755       22.4521761335
  C        17.8913802760        1.4077011533       22.6231290478
  S        12.0512687788        6.4719678215       11.6002062876
  C        11.5787972144        9.1382637676       11.1044223612
  H         5.7467666294        0.0626238376       38.0151256702
  H         4.5784211231       -0.4719435678       39.1851580590
  H         5.5702602317       -1.6338119354       38.4474678727
  H         0.8347139600       -2.1973535380       19.1558019199
  H         0.6014326414       -0.5030901601       18.6396146520
  H         1.9820174894       -0.8819272715       19.7777041833
  H        17.4165782310        0.6445915816       23.1585291990
  H        18.7310241233        1.6365656868       23.2958333074
  H        18.4088838842        0.9967547709       21.8130983825
  C        12.2943440070        7.2582782481       10.0607403736
  N        12.0767379827        8.6320443546       10.0139946458
  O        11.3197857274       10.2860957986       11.3487101072
  S        12.8989934085        6.4221287376        8.6693452183
  C        12.1475635056        9.4148532264        8.6917431783
  H        12.1890501510       10.4663856063        9.0536695397
  H        13.1108481017        9.1195295202        8.2085232292
  C        10.8716581592        9.3682904057        7.8165511018
  H        11.1867858820        9.6294534073        6.8362663607
  H        10.3655227546        8.4043222130        7.7887673658
  H        10.2577904295       10.2111638061        8.2430933712
  H         4.8624612014        2.2287401285       12.6345046975
  C         4.0927255678        2.9187984201       12.7076433053
  H         4.6926105037        3.7665854332       12.7598458762
  C         3.1721702116        2.9478543906       11.4553994958
  C         3.4353198038        2.6505269734       14.0566593187
  C         3.9150385734        2.9665641929       10.2174666973
  H         2.4841235755        3.8163412564       11.5063081219
  H         2.4922679597        2.1249174703       11.5985119031
  H         3.1483071634        1.5537176550       14.1316426598
  H         2.5510108148        3.2412314795       14.0552602427
  H         4.0024204709        3.0018117941       14.9116112353
  C         4.7054902883        1.6544415844        9.8633102493
  H         3.1924462083        3.2123956284        9.3935987346
  H         4.6162099202        3.8044969791       10.2573473973
  C         5.3669334315        1.6882569237        8.4998978057
  H         3.8870330818        0.8552362661        9.7369615786
  H         5.4541747355        1.4515419685       10.6665723182
  C         6.6969689980        2.4668127094        8.3728265625
  H         4.6782473282        2.1692900004        7.7675734030
  H         5.4869941535        0.7072776505        8.0519296126
  C         7.8713312156        1.8522749274        9.0675509331
  H         6.9699572121        2.4575689679        7.2706306491
  H         6.5064082392        3.4696899041        8.6649630325
  C         9.1504803622        2.7872837629        9.0066854342
  H         8.1118815568        0.9446466522        8.6593567382
  H         7.6073325875        1.6130079596       10.0451905649
  C         8.7848068554        4.1175188344        9.6293499545
  C         9.5699771193        3.4395771705        7.7507466712
  C        10.3111605424        2.1334397175        9.6678142146
  C         8.8592111859        5.1892086055        8.7752302249
  C         8.2554448042        4.4744280925       10.8686905429
  C         9.4795002720        4.7960422222        7.5649163813
  C        10.0510594571        2.7498301148        6.5845786893
  H         9.9254670801        1.9143571657       10.6769648530
  H        10.3075192232        1.1515425845        9.2465715784
  C        11.5700034873        2.9933819139        9.8072335650
  S         8.4883283382        6.7093717710        9.5243259830
  C         8.0562094496        5.8237197189       11.0019152028
  H         8.1392636387        3.7132297824       11.6462222636
  C         9.8177763466        5.4349935132        6.4067911757
  H        10.3250305408        1.7045579861        6.6382133415
  C        10.3609087642        3.3734137283        5.4142826476
  H        11.3266931511        4.0319512301       10.0565077588
  H        12.1442373322        3.0161354537        8.9062944233
  C        12.4370709662        2.6117700863       11.0198050396
  C         7.7088611963        6.4051205415       12.2953658741
  C        10.3248929321        4.7208411067        5.2914408920
  H         9.6442331186        6.4921350435        6.3194336241
  C        10.7007915559        3.0028426306        4.1431344965
  H        13.2596213200        3.3295230588       10.9463044570
  H        12.9254141426        1.6836676269       10.7718529225
  C        11.6857573052        2.5113440205       12.3743403330
  C         7.6712475152        7.7974410817       12.5680706811
  C         7.3073307641        5.5119200984       13.4696723003
  C        10.6712195986        5.4041761486        3.9790148459
  C        10.8538644959        4.0752572410        3.2450939726
  S        10.9468415510        1.5431482987        3.3160022490
  H        11.0827773441        3.4359091324       12.3246423432
  H        11.0949395833        1.6620238419       12.4362079249
  C        12.7782996434        2.5193517347       13.4265085482
  N         8.1034076339        8.7116137569       11.6176234668
  C         7.4073288391        8.3648146592       13.8171822566
  C         7.0095983150        6.1082422057       14.6954376062
  H         7.1072797638        4.4329069579       13.4112822058
  C        12.1000127188        6.0878880867        4.0744570797
  C         9.6193970329        6.3455578752        3.3322052054
  C        11.2533565214        3.7263778687        1.9437682569
  C        11.2678670022        2.3626540963        1.8154931167
  H        13.2825354561        3.4590256620       13.5624704969
  H        13.5750228061        1.8805616058       13.1155439729
  C        12.3283853054        1.9726034696       14.8206153318
  S         7.9027659905       10.1568238891       12.2665825460
  N         7.5700305128        9.7116066352       13.7317065138
  C         7.0430765107        7.6118849863       14.9830347552
  H         6.6814347190        5.4355460194       15.5056080101
  H        11.9831488342        7.0598588191        4.6284773511
  H        12.4540804520        6.3006346912        3.0632905272
  C        13.2414670595        5.2288746941        4.6543628422
  H         9.4070899862        7.1204831255        4.1004167083
  H        10.0456988494        6.9925004145        2.5255474144
  C         8.3546167317        5.6935838449        2.8848497286
  H        11.6007961267        4.4928327694        1.2321519982
  C        11.6544435019        1.6141476416        0.6099965740
  H        11.5233514605        2.5365503688       15.2965542171
  H        12.0009140967        0.9444812376       14.5443053321
  C        13.4015971310        1.7143136595       15.8794253455
  C         6.8291582443        8.2320268135       16.2468473213
  H        13.0047487027        4.9944510341        5.6819309661
  H        13.4080817021        4.2993110377        3.9792823466
  C        14.5172597967        6.0625844649        4.8802827894
  H         7.8752908658        5.2089320267        3.7575330670
  H         8.6221993713        4.9344116447        2.1562248173
  C         7.3538624411        6.7007253743        2.2750724830
  C        11.5765309891        0.2249318795        0.3433165097
  C        12.0402514160        2.3448613326       -0.5968454911
  H        14.3386013565        2.2076556648       15.7799885151
  H        13.5850579577        0.6307308653       15.9340389430
  C        12.8659358582        1.9235973772       17.2590060973
  H         6.8924131719        9.3416359353       16.2713633114
  C         6.5353088971        7.7383799023       17.4762697674
  H        14.0830810063        6.8912923180        5.5058984645
  H        15.0520629075        6.4305054011        3.9698767818
  C        15.5224179521        5.2725228231        5.7624236941
  H         7.3777967443        7.6635779385        2.7874701469
  H         7.6599005149        6.8258607073        1.2069518909
  C         6.0010531887        6.0156636916        2.4210745831
  N        11.2017584497       -0.6942875125        1.2893921462
  C        11.8646922177       -0.4394341533       -0.8349145988
  C        12.5342909657        1.6787607359       -1.7314319532
  H        12.0887847740        3.4270991265       -0.4827790570
  H        12.7279998640        2.9998672558       17.6741731571
  H        13.5407680841        1.4848840173       18.0273527690
  H        11.9326480189        1.3302503990       17.1902813326
  S         6.2329083680        6.1077625544       17.9548910577
  C         6.5690530566        8.7594540974       18.5544492063
  H        15.1838663929        5.0045664492        6.7702876200
  H        15.6527125701        4.2792131122        5.3205693838
  C        16.9526363826        5.9088047999        5.7121132347
  H         5.7573330426        5.8821310751        3.4347962543
  H         5.9626710623        5.1199203467        1.8619650966
  C         4.8627481691        6.7916379078        1.7577218850
  S        11.3358295272       -2.2290345283        0.7070515189
  N        11.6704547568       -1.8109694442       -0.7792885764
  C        12.3415451629        0.1983768338       -1.9552646448
  H        12.9029701299        2.2720626504       -2.5621547364
  C         5.8651698983        6.8331382785       19.4916825220
  N         6.0912231489        8.1458309867       19.6454137022
  O         6.9144372747        9.9555413032       18.4555488093
  H        17.3923680069        5.4801859645        4.8155722376
  H        16.8741675954        7.0371309518        5.6280591915
  C        17.8249528607        5.5665402010        6.9394629212
  H         5.1689637990        6.8303854003        0.7155773265
  H         3.9399032574        6.2194421108        1.9493014995
  C         4.7406434742        8.2125087460        2.3874331328
  C        12.6017291610       -0.5103510220       -3.1745833420
  S         5.4153695454        5.8897584606       20.8655753258
  C         5.8541414982        8.9406344851       20.8833878768
  H        17.6369623244        6.0565488982        7.8232429638
  H        17.8482867382        4.5047574249        7.1806724576
  C        19.2287293635        6.1049397620        6.7016585500
  H         5.5858918294        8.7546019504        2.0261883591
  H         4.6077305221        8.1625452821        3.4771008240
  C         3.5451995764        8.9197803267        1.8326936130
  H        12.2103176485       -1.5564073250       -3.0919873690
  C        13.1279175172       -0.2794423720       -4.4144934303
  H         5.0554506227        8.3796874034       21.4567710949
  H         5.3889467552        9.8850964640       20.6444934516
  C         7.1691117763        9.1062145523       21.6769570084
  H        19.9614456716        5.7752733280        7.5153111621
  H        19.1506098240        7.1432348080        6.7131036645
  C        19.8538965632        5.5627081253        5.4344695396
  H         2.7768321477        8.0947072456        1.8753131390
  H         3.1382307057        9.7512130384        2.4416945459
  C         3.6026814281        9.3745409681        0.4156748258
  S        13.7982491834        1.2312213128       -4.8889981838
  C        13.1405972279       -1.3511660459       -5.4541129484
  H         7.9817631210        8.6394186506       21.2115512524
  H         7.0173806604        8.7268336655       22.7682880925
  H         7.4954057250       10.1414598849       21.7065786566
  H        20.9562968743        5.7186772607        5.4268989103
  H        19.6651228167        4.5119949600        5.3414603716
  H        19.5150442307        6.1532624022        4.5465031624
  H         2.5637128244        9.4889707637        0.1176232099
  H         3.9829819659       10.3530157853        0.2785624984
  H         3.9207619310        8.6635086103       -0.3266985844
  C        13.9219489158        0.4860484529       -6.4987142955
  N        13.7093133528       -0.8474657596       -6.5729653171
  O        12.7109985797       -2.4750240568       -5.2899265611
  S        14.3510237041        1.3480216839       -7.9368157574
  C        13.7254404028       -1.6734253883       -7.6897212813
  H        14.0777686193       -2.6556161422       -7.4963075814
  H        14.4478240167       -1.3403371852       -8.3841545494
  C        12.4055983322       -1.7580295987       -8.3905310023
  H        11.5373618685       -1.5490356760       -7.7846931246
  H        12.2548904851       -2.7300867285       -8.8237254803
  H        12.3776394560       -1.0840452292       -9.2136638706
