352
 i =    45500, time =    22750.000, E =        98.7256894773
  H        10.3222409667        4.5107233807       31.0373888156
  C        10.2413188678        5.4801472142       31.4994054214
  H         9.1866441056        5.6868522764       31.3441682939
  C        11.0964124488        6.5745820856       30.7706531890
  C        10.7709447401        5.5336111648       32.8794312196
  C        11.3678444983        6.0742358986       29.3218181730
  H        10.6662096965        7.5772078320       30.7750837063
  H        12.1008386272        6.7238549942       31.2197460614
  H        10.5064316044        4.7268379411       33.6015397085
  H        11.8764292958        5.5809731018       32.8783365039
  H        10.4643043454        6.4535805415       33.3997769165
  C        10.1915495432        6.0740157864       28.4209519523
  H        11.6529052191        5.0623216243       29.5057641950
  H        12.2024514746        6.6398790436       28.9312780581
  C        10.6619789218        5.9118039247       27.0067182824
  H         9.7093682768        5.0269722651       28.5706790799
  H         9.5154508443        6.9239462552       28.4058419841
  C         9.6551576799        5.1690734235       26.1580921258
  H        11.5944027506        5.2882660934       27.0222989049
  H        10.9785543948        6.8962831881       26.7002392318
  C         8.4535745460        6.1056394462       25.8058853987
  H        10.0648576717        4.7514242981       25.2207188247
  H         9.3044045486        4.3235304961       26.7562666256
  C         7.2604662365        5.4048101961       25.0923884187
  H         8.1748807636        6.6653651542       26.6658797429
  H         8.7724241461        6.8837908950       25.1149459309
  C         6.8482956902        4.0432235941       25.7044725436
  C         7.6937914482        4.7187612417       23.7924803313
  C         6.0534038340        6.3115960237       24.8607149485
  C         6.9930503030        2.9727824858       24.8711580301
  C         6.2604773587        3.5853600372       26.9015238497
  C         7.5219074723        3.3739930930       23.6411221743
  C         8.2567249023        5.3143415412       22.6429940094
  H         6.4668827462        7.0487588214       24.1874508619
  H         5.9171976612        6.8658705057       25.7588728287
  C         4.8675511142        5.6032557142       24.4164659792
  S         6.7755627537        1.4309027362       25.6013250012
  C         6.2520951204        2.2045094240       27.0250459307
  H         5.9879677568        4.3611583451       27.6407756914
  C         7.9623432753        2.6533617369       22.5593669265
  H         8.2318906654        6.3620023302       22.6097562843
  C         8.6367821252        4.7038855251       21.5246195270
  H         4.8727391321        5.6408716163       23.3553323311
  H         4.6309647497        4.6894335429       24.9102190763
  C         3.6297618804        6.4828569071       24.8602018538
  C         5.8992972792        1.5263197251       28.2959149401
  C         8.5507244346        3.3139225911       21.4349175166
  H         7.7465607476        1.6299443623       22.4746730911
  C         9.1575303580        5.0874230809       20.2731631767
  H         2.7932441573        6.0944318071       24.2937804252
  H         3.7499224061        7.4917390305       24.5711382544
  C         3.2380314719        6.2687593302       26.3225338697
  C         5.8746101094        0.1443329117       28.5647689283
  C         5.4404481890        2.3883615588       29.4290960225
  C         9.0257152814        2.6367940183       20.1729864039
  C         9.4265920315        3.9593789507       19.4878564093
  S         9.5165638247        6.5898376661       19.5102745091
  H         2.5588266922        7.0087905157       26.6445141821
  H         4.0921853533        6.2333400486       26.9526114908
  C         2.6137457094        4.9616786736       26.5643089587
  N         6.2150066113       -0.7708948248       27.5743429415
  C         5.6078618610       -0.4699569400       29.8258400265
  C         5.2847355164        1.8124216292       30.6982960732
  H         5.3168446846        3.4158842742       29.3437107433
  C         7.8965075170        1.8343224759       19.4868351410
  C        10.2064658929        1.7238969558       20.3689707668
  C         9.9489559774        4.3772942337       18.2704453455
  C        10.0257137966        5.7318950130       18.1485360875
  H         2.2163891076        4.4563528413       25.6861314593
  H         3.3456245796        4.2689726537       26.8660264538
  C         1.6195638458        4.9458664931       27.7229567385
  S         6.0586243924       -2.2550164318       28.2302163721
  N         5.7691279455       -1.8380751824       29.7823566036
  C         5.3595440544        0.2872743713       30.9756978217
  H         5.0173269967        2.4700932667       31.4822268175
  H         7.5015456639        1.1067688784       20.1339140563
  H         8.3321846187        1.2225002298       18.6992989911
  C         6.7815943416        2.7033026188       18.8963826266
  H        10.4180533488        1.2790071628       19.4640961474
  H         9.9846611947        0.9794477165       21.1181430206
  C        11.5024675502        2.4305916987       20.8240449844
  H        10.2101046129        3.5732596373       17.5950382032
  C        10.2732221851        6.5075296378       16.8827974525
  H         1.2326861352        3.9627055637       27.9103921151
  H         0.7530971145        5.5225332082       27.4852761452
  C         2.1169408496        5.3475421108       29.1212577058
  C         5.1876065791       -0.2557336690       32.2228912526
  H         7.1241445818        3.1158774276       17.9234938185
  H         6.4454208312        3.4516646764       19.6252858711
  C         5.6554598746        1.7613447046       18.6718029280
  H        11.2168606470        2.9335379638       21.7095371950
  H        11.9024051484        3.1699938362       20.1935106305
  C        12.6147506214        1.4545248771       21.2531398847
  C        10.2771356336        7.9377505441       16.7452966267
  C        10.4475749964        5.7378952431       15.6776291191
  H         2.7939308612        4.6352203213       29.6406802573
  H         2.6972152819        6.2911854834       29.0616431366
  C         1.0237119407        5.5766342686       30.0377309255
  H         5.6525722716       -1.2838033182       32.2167787114
  C         4.8850766338        0.1474391419       33.5206106875
  H         5.3924610337        1.3773606934       19.6688515229
  H         5.8578732726        0.8334330706       18.1699935691
  C         4.4252169788        2.4923482295       18.0173538390
  H        12.3144596871        0.7126642337       21.9634739309
  H        12.9985574513        0.8868169733       20.3949922149
  C        13.7420149619        2.2269458236       21.8103825573
  N        10.1885465954        8.8668774935       17.7623282146
  C        10.4713864927        8.5371052201       15.5023407845
  C        10.7442289122        6.3968628274       14.4687911807
  H        10.3649979941        4.6759918655       15.6540013818
  H         1.4427144859        5.4602023661       31.0153370119
  H         0.6194632001        6.5720821869       29.9636118393
  H         0.2282755560        4.8817988071       29.8077009831
  S         4.6606187987        1.7523633714       34.1077083409
  C         4.8645949356       -0.9441721201       34.5261700874
  H         4.2910000612        3.4776837899       18.4491803114
  H         4.4501696723        2.7119130221       17.0146535111
  C         3.0985147544        1.7203218994       18.2545973798
  H        13.4745335783        3.0826601724       22.4559220997
  H        14.4370393517        2.6650425874       21.0460303522
  C        14.5717217403        1.4795118218       22.8371775818
  S        10.3252757628       10.3018334480       17.1052378403
  N        10.4390795689        9.8950210182       15.5566219069
  C        10.7276819734        7.8339308333       14.3085753497
  H        10.8941173673        5.7636941184       13.5930141086
  C         4.3567704068        0.9553595542       35.6347407699
  N         4.4770734414       -0.4241877777       35.6910815036
  O         4.9512151290       -2.1485152958       34.2105305264
  H         2.1717215233        2.2932429622       18.2307895598
  H         3.1899416911        1.5127353806       19.3852970453
  C         2.8397344386        0.4908356289       17.4302852250
  H        14.0290304108        1.1884994292       23.7118471760
  H        14.9404735383        0.5551961285       22.4045800206
  C        15.7177274619        2.3631840449       23.2298443706
  C        11.0654722081        8.5461130666       13.1112565071
  S         3.9122788092        1.7496844981       37.1183684149
  C         4.4238426999       -1.2818774917       36.9223778860
  H         2.3352356560        0.6971673418       16.4614914997
  H         3.8104009190        0.0886716709       17.1705189349
  C         2.0003371190       -0.4430467448       18.2656397956
  H        15.6706157666        2.4680038226       24.3434363481
  H        15.5791289362        3.3528690947       22.8534939602
  C        17.0863426667        1.8785394920       22.6790709876
  H        10.8529864382        9.5751542761       13.1915186314
  C        11.4372642539        8.2412527926       11.8153754241
  H         3.7573192890       -0.8655359046       37.6306495464
  H         4.0083987948       -2.2079779868       36.7776443741
  C         5.8281868983       -1.3743578165       37.5558041876
  H         0.9584466004       -0.1297083432       18.2961630933
  H         2.2938031571       -0.3851404621       19.2546603788
  C         2.1463716671       -1.8229203766       17.6857915565
  H        17.1055815895        0.9416570281       22.1071453327
  H        17.3180616026        2.6495192422       21.9008427345
  C        18.1136477612        1.9767793092       23.7311475817
  S        12.2102224958        6.7416690280       11.2660011573
  C        11.5470888031        9.4766979954       11.0002884077
  H         6.0298855772       -2.3568637145       38.0085308151
  H         6.5553612569       -0.9218142254       36.8625259984
  H         6.0338627508       -0.7247616248       38.3841925042
  H         3.1093152534       -2.1732898557       17.3892136694
  H         1.5129301624       -1.9129271616       16.8131510504
  H         1.8094931781       -2.5259201086       18.5136107948
  H        17.7996102740        2.3976689823       24.7420588261
  H        19.0103083861        2.4211856534       23.3429023761
  H        18.4570991520        0.9742488011       23.9713745833
  C        12.5423148279        7.7315139047        9.8738324705
  N        12.3026273762        9.0558453715        9.9686089507
  O        11.2344989036       10.6154265350       11.2553695124
  S        13.2310393153        7.0732472914        8.3675879777
  C        12.5528383550       10.0130433854        8.8965737401
  H        12.8189304385       11.0079274920        9.3631241178
  H        13.4749772547        9.7998379233        8.2597096651
  C        11.3304134738       10.1976058534        7.9838418606
  H        11.5992493775       10.3724669016        6.9055042784
  H        10.6344364065        9.3494631277        7.9326156342
  H        10.7924622027       11.0693522603        8.3374915908
  H         3.9992705645        1.1219449497       13.0430672056
  C         4.5614608071        2.0686294785       12.9848224663
  H         5.6301886630        1.9312499063       12.9044969474
  C         3.9424156256        3.0419199136       11.9840725625
  C         4.3538149419        2.5481326741       14.4496182305
  C         4.6295606205        3.1535011678       10.5945658022
  H         3.9346605603        4.0559884177       12.3730908595
  H         2.9208639013        2.7124476118       11.7973361771
  H         4.9634358608        1.9513660064       15.0286074571
  H         3.3173467533        2.3537534668       14.6962789951
  H         4.6509565727        3.5921814944       14.6848353499
  C         4.9802890417        1.8278075524        9.8800368301
  H         4.0201188390        3.8203115946        9.8906574696
  H         5.5187984555        3.6469717216       10.7136205222
  C         5.4388077800        2.0751798365        8.4551853308
  H         4.0464011417        1.2217766606        9.7038487631
  H         5.7354711716        1.2939578301       10.5046775384
  C         6.7896655808        2.8867614533        8.3204754269
  H         4.6968982594        2.4707163671        7.7859429246
  H         5.6105862914        1.0856317997        8.0455398529
  C         8.0492211608        2.1484174217        8.8096657787
  H         6.9065248284        3.1327698207        7.2576353380
  H         6.4762618274        3.8087135655        8.8229192138
  C         9.3223473943        3.0629616844        9.0093944410
  H         8.1968817090        1.2534118504        8.2655940038
  H         7.9614954852        1.6041336376        9.7852458244
  C         8.9097563231        4.3932397704        9.6437177273
  C         9.6739388021        3.7349758832        7.7019391683
  C        10.6574326411        2.3730865451        9.5299922384
  C         9.1121406985        5.4933923280        8.8035841774
  C         8.4051888299        4.6998609973       10.8760743034
  C         9.6126654975        5.0861051318        7.5479406294
  C        10.0749500563        3.1153406180        6.5749046584
  H        10.3140799175        1.7324127322       10.3142436745
  H        10.9708594391        1.6922743974        8.7420709214
  C        11.7643635284        3.3476801229       10.0474759182
  S         8.6336957069        6.9253900125        9.6572841197
  C         8.2810223721        6.0069122993       11.0213291613
  H         8.2193050062        3.8916582171       11.5300775916
  C         9.9068498753        5.6836961977        6.3857669989
  H        10.0509181767        2.0343940389        6.6762945136
  C        10.4812002564        3.6567226102        5.3968586545
  H        11.3353928484        4.2640347777       10.4796187540
  H        12.3711917352        3.6565287845        9.2306369059
  C        12.6052669754        2.6625820233       11.0756658980
  C         7.9454011791        6.6663760915       12.3714691661
  C        10.3835869582        5.0279895906        5.2737806231
  H         9.8676302595        6.7496313976        6.2826389389
  C        11.0032853389        3.2382693828        4.2256633728
  H        13.4639713704        3.3111996327       11.2796223369
  H        13.1220586103        1.7752826772       10.7550399536
  C        11.9622938242        2.6542869460       12.5232691521
  C         7.9354030008        8.0780473891       12.6357444830
  C         7.4968900591        5.8283457469       13.5961603694
  C        10.9140773544        5.6782658788        4.0015579933
  C        11.2189911151        4.3343813941        3.3932309510
  S        11.2660080205        1.7567357400        3.4785334454
  H        11.5366468816        3.6940661722       12.6589232530
  H        11.0910536826        2.0044931714       12.7092391461
  C        13.0280982240        2.4096677312       13.6195751559
  N         8.2737897207        9.0775961499       11.7338741088
  C         7.6569983472        8.6297117155       13.8810147980
  C         7.3094967726        6.3952596684       14.8300147750
  H         7.4345323780        4.7341790079       13.5462142297
  C        12.2062967029        6.4259554374        4.2071451546
  C         9.9605537585        6.3697643401        3.0147959117
  C        11.6747036458        3.9064831550        2.1540770367
  C        11.7431943658        2.5373291005        2.0856807802
  H        13.9091149451        3.0123619506       13.3980369291
  H        13.4352997595        1.4201261360       13.4697167067
  C        12.5643314745        2.5375651161       15.0697229086
  S         8.2609334150       10.5655554065       12.4060811169
  N         7.6435306763       10.0145250398       13.8504827770
  C         7.3307799839        7.8446152709       15.0516757625
  H         7.0345453397        5.7473937927       15.7042306264
  H        12.0670677939        7.2515113206        4.8632164530
  H        12.5394006450        6.8587740719        3.2896196289
  C        13.3260826527        5.5158429211        4.7916957640
  H         9.6968025640        7.3480670490        3.3409196810
  H        10.4672315013        6.6050673468        2.0838162424
  C         8.7131463066        5.5328321970        2.6469346064
  H        11.7500243185        4.7028133945        1.4161856519
  C        11.9607395911        1.7587138053        0.8228552935
  H        12.2858492558        3.6312983679       15.0757982072
  H        11.5762118846        2.1008112875       15.3567167770
  C        13.6950222358        2.2852019353       16.1516901025
  C         7.0897906775        8.6001055304       16.2876169723
  H        13.0348193996        5.1824999774        5.7154534884
  H        13.6115512500        4.6823644323        4.2247666679
  C        14.5475331587        6.3342821659        5.1056278703
  H         8.3000365630        5.1392938337        3.6160496701
  H         8.7775645654        4.6920094370        1.9683314951
  C         7.5402329720        6.3616193301        2.1169127479
  C        11.8030593299        0.3433162651        0.6280812136
  C        12.1381556535        2.5286634101       -0.4628608798
  H        14.5822725055        2.9666915053       16.0175310516
  H        14.1067959595        1.2733805406       16.2479818470
  C        13.1946056727        2.6813906090       17.5052073277
  H         7.2598596655        9.6640035775       16.2986916072
  C         6.7157115152        8.1803269180       17.5626720859
  H        14.3003332970        7.0353995333        5.9056318232
  H        14.6982928404        6.9031791752        4.2031275605
  C        15.7961100744        5.4748681209        5.2746459716
  H         7.5331304545        7.2350480481        2.7381980787
  H         7.7970905241        6.7345337644        1.0795594819
  C         6.2249915939        5.5872800636        2.1062406038
  N        11.6270911981       -0.5979472990        1.6326991693
  C        12.0516430943       -0.3052939466       -0.5653887416
  C        12.5268894818        1.8131124197       -1.6235145587
  H        11.8820621366        3.5864302634       -0.5375978238
  H        12.4533401040        1.9379482840       17.8874934188
  H        12.6986736253        3.5530223060       17.3692680001
  H        14.0069183276        2.8933517921       18.2933242832
  S         6.3834810760        6.4632007980       17.9913247806
  C         6.4925152782        9.2165248673       18.5695528293
  H        15.5194074998        4.4929490613        5.7779248698
  H        16.3215250659        5.2562440561        4.3370888506
  C        16.7785447617        6.2914612115        6.1009708436
  H         5.9415678874        5.2153280936        3.1005565163
  H         6.4506171191        4.7045508418        1.5757932749
  C         5.0555851677        6.3612995931        1.5024289867
  S        11.5389615283       -2.1128432596        0.9698785714
  N        11.9734767901       -1.6727781896       -0.4886506135
  C        12.4249536006        0.3308014600       -1.7229282750
  H        12.6088686850        2.3087123596       -2.5788872487
  C         5.8808716135        7.1817271976       19.5673718291
  N         6.0326615399        8.5348887708       19.6417469614
  O         6.5555876288       10.4731046548       18.4273913950
  H        17.4827082782        6.8818262986        5.5206158083
  H        16.2772689496        6.9943265187        6.7562942586
  C        17.6482361587        5.3290500365        6.8836001462
  H         5.1805001264        6.5873446286        0.4890505853
  H         4.2114126807        5.6947821374        1.5594824227
  C         4.7813391086        7.6796385397        2.2558635179
  C        12.6549903437       -0.4710640869       -2.8958242822
  S         5.5948650844        6.1915730083       21.0126233407
  C         6.0398169523        9.2337090275       20.9574608758
  H        17.1077843651        5.0974479454        7.7979807908
  H        17.8139989137        4.4320667464        6.3253226127
  C        19.0825768284        5.9545430166        7.1440296774
  H         5.4807861311        7.7851427743        3.0514353913
  H         3.7922884178        7.6176369416        2.7344232394
  C         4.8841133156        8.8801893055        1.3971090659
  H        12.2113309212       -1.4410930251       -2.8048709746
  C        13.3284667777       -0.1685136987       -4.0753125027
  H         5.3327842150        8.7718433211       21.6786019645
  H         5.7928903070       10.3026716922       20.9522980220
  C         7.4670669369        9.2607324100       21.5337269814
  H        19.3540078789        5.5273122943        8.1207955222
  H        18.9806140575        6.9422888354        7.4772793452
  C        20.2471058624        5.6922269062        6.1610990227
  H         4.8412000629        9.8471852568        1.9302224240
  H         5.8238357279        8.8844963497        0.9367099144
  C         3.8585442461        9.1280342435        0.2841113791
  S        14.0622814268        1.2752308384       -4.5933567124
  C        13.3453249263       -1.2513490704       -5.0655879308
  H         7.5511902044        8.2614709635       21.9327850464
  H         7.6529852891        9.9770099569       22.3415114964
  H         8.2388447650        9.3068348401       20.7648666777
  H        20.6265006909        4.7486933055        6.1328719437
  H        19.9150462400        5.8557696887        5.1383985541
  H        21.0942840103        6.4025234888        6.3137609964
  H         2.8153561925        8.8352532015        0.6528419938
  H         3.7930498844       10.2257028057        0.1450484928
  H         3.8876392919        8.6380605370       -0.7205071676
  C        14.4055072121        0.4293448133       -6.1104379636
  N        14.0152315075       -0.8489412879       -6.1833600780
  O        12.8499092798       -2.2938523064       -4.8712905216
  S        15.2026328776        1.1553510680       -7.4520540246
  C        14.1573956798       -1.6380391003       -7.4541489511
  H        14.1241190631       -2.6874952036       -7.2383922423
  H        15.1629873726       -1.5071198587       -7.9214345771
  C        12.9587491148       -1.3391657958       -8.3336741389
  H        12.6196244891       -0.3405571264       -8.1108108607
  H        12.1076736446       -1.9419776169       -7.9963735017
  H        13.2026504209       -1.5240099536       -9.3016480268
