352
 i =    20800, time =    10400.000, E =        97.2270480187
  H        10.1488590385        4.5579924957       31.7718421131
  C        10.3483200615        5.5507849385       32.2242917076
  H         9.4637410984        6.1892684233       32.1388785009
  C        11.4921337436        6.4057124669       31.4772445533
  C        10.5067678209        5.4155513746       33.6971477738
  C        11.6497018514        5.9147259703       30.0817291497
  H        11.2108292550        7.4265683941       31.4784545240
  H        12.4353760801        6.4856894775       31.9867253939
  H        11.5854324772        5.6261716345       33.9821638515
  H         9.9152905275        6.1430177133       34.1583883571
  H        10.2627454204        4.3636507876       33.8678603683
  C        10.3462539709        5.8987408508       29.1910553376
  H        12.1626285058        4.9452764288       30.1688139876
  H        12.3687387671        6.6119575654       29.6836220715
  C        10.7089263881        5.4825134000       27.7233617868
  H         9.6773898024        5.1759555831       29.5961681202
  H         9.7766720579        6.8371149399       29.1206612908
  C         9.6136864830        4.7735071884       26.9310282297
  H        11.4668937491        4.8263119875       27.7875133122
  H        11.0642029481        6.3150841488       27.1306762975
  C         8.6872618382        5.7621161105       26.1326879693
  H         9.9607217519        4.0205011790       26.3574556183
  H         9.0211406776        4.3044908336       27.7815848443
  C         7.3853685305        5.0761369685       25.5895646867
  H         8.3183612451        6.5298480831       26.8241028528
  H         9.3289963575        6.1904931152       25.3359615446
  C         7.0164397509        3.7705686582       26.2287394782
  C         7.8811578545        4.3186575131       24.3332668087
  C         6.1806939212        5.9716701022       25.2237959465
  C         7.3879465706        2.6337520729       25.5198508257
  C         6.5174437849        3.3713994871       27.4859995518
  C         7.8367545613        2.9679815749       24.2508454629
  C         8.3323684363        4.8998178262       23.1591772379
  H         6.5597070808        6.6346837426       24.5233536340
  H         5.9321816959        6.5652583668       26.0950520416
  C         4.9393904479        5.1777843950       24.7272895554
  S         7.0064657112        1.1052108922       26.2722008242
  C         6.4177013876        2.0077775305       27.6298282453
  H         6.2033657747        4.1617608471       28.1740679155
  C         8.1740671282        2.3042774445       23.1177795006
  H         8.4770718250        5.9447663983       23.0743518926
  C         8.7758668563        4.2487322900       22.0022913414
  H         5.0694737404        4.5669004272       23.8786893265
  H         4.5775860383        4.4113265059       25.3755159838
  C         3.6263198102        5.9891312680       24.5399468091
  C         5.9045063961        1.4372732050       28.8880634264
  C         8.6404717351        2.9013617797       21.9286160570
  H         8.0561633254        1.2871428739       23.0818330259
  C         9.1461011264        4.5909864961       20.7092084503
  H         2.8668998585        5.4423138200       23.8968127753
  H         3.9801238928        6.9465163194       24.0099180236
  C         2.9264274941        6.4199077015       25.8503177900
  C         5.8456355167        0.0585705135       29.1504778094
  C         5.3672434235        2.2407906225       30.0334562406
  C         8.9708671629        2.2135621470       20.6246360951
  C         9.1297377807        3.5362917561       19.8751040438
  S         9.5571658124        6.1074720527       20.0147798399
  H         2.3053932714        7.2816286881       25.6054260628
  H         3.6908829789        6.7819907755       26.5718018464
  C         2.1012997478        5.2395146533       26.4554768231
  N         6.1752477400       -0.9599593118       28.2727146894
  C         5.4266825180       -0.4922417690       30.3698034249
  C         4.9922944666        1.7155632349       31.2782399746
  H         5.0920518734        3.2410537621       29.8572593948
  C         7.7840495131        1.4952223476       20.0211315503
  C        10.1375929801        1.3736414698       20.7974611589
  C         9.5922187668        3.9286845160       18.5694616922
  C         9.6671211063        5.3323340633       18.4412389261
  H         1.2095289202        4.9175833963       25.9378712501
  H         2.7256113345        4.4750291722       26.6544524962
  C         1.3761904738        5.7045840400       27.7207706396
  S         6.0657317313       -2.4348964739       28.9880180996
  N         5.5491177278       -1.8773204953       30.3934220569
  C         5.0618202338        0.2713275028       31.5025607320
  H         4.5283228432        2.3023461961       32.0144322494
  H         7.4476456271        0.6019519378       20.6109394748
  H         8.2273503397        0.9841888915       19.1138321303
  C         6.5540865767        2.3267844641       19.6324974256
  H        10.3715701463        0.7926882678       19.9835361602
  H        10.0869188609        0.6294256887       21.5586141788
  C        11.4341559784        2.1215500688       21.2163259617
  H         9.8595593271        3.1797046102       17.8965581843
  C         9.9864882859        6.0564849032       17.1712683773
  H         0.2934148529        5.6501814801       27.5638907102
  H         1.5108906764        6.7424587892       27.8803687947
  C         1.8377156234        5.0552441863       28.9567414214
  C         4.8316241555       -0.4378459327       32.7637107368
  H         6.7857831729        3.1225093245       18.9252120251
  H         6.1981024568        2.7755333212       20.5090220652
  C         5.4178504648        1.4523489773       19.1341146470
  H        11.3482347849        2.5951058027       22.1765042061
  H        11.6684407143        2.9438716334       20.5284885126
  C        12.5923411341        1.0488622679       21.2848033034
  C         9.9915309814        7.4033618824       17.0592712604
  C         9.9734057219        5.2821033143       15.8811286787
  H         1.6856383356        3.9952746552       28.8842835765
  H         2.8836557400        5.2636847319       28.9887507737
  C         1.0517655852        5.5034267191       30.1857637749
  H         5.0670578245       -1.5169603601       32.7793024704
  C         4.6077408143        0.0835621185       34.0159466721
  H         5.1749273462        0.5695238384       19.7234512438
  H         5.8688637841        1.1369440117       18.2600521466
  C         4.1246504248        2.2727688281       18.8875763515
  H        12.3476520128        0.2283088599       22.0637870855
  H        12.5829464002        0.4422815504       20.3253888594
  C        13.9896733427        1.6791113685       21.4170093762
  N         9.8318005756        8.2712938603       18.1359139846
  C        10.3581651899        8.0095118131       15.8744699999
  C        10.2285909110        5.8948828091       14.6477925554
  H         9.8127355539        4.2023678898       15.8796299262
  H         0.1300748100        4.9418271387       30.3276229846
  H         1.6226886979        5.3606797227       31.1066830171
  H         0.7205094437        6.5571538181       30.0677130999
  S         4.2771814386        1.7167768347       34.4416933548
  C         4.5732234076       -0.9315508718       35.0709115042
  H         3.9990033809        2.9932010621       19.7606779036
  H         4.1905117363        2.9581632113       17.9774183763
  C         2.8508638463        1.4496376636       18.7515991326
  H        14.0294333307        2.4010169990       20.6475918717
  H        14.7118025819        0.9235848251       21.1689993807
  C        14.1668790375        2.2968968136       22.7857534755
  S        10.0873034655        9.7426585487       17.5783331857
  N        10.5616467003        9.4266168793       16.0179360764
  C        10.4993446873        7.3521849015       14.6449845677
  H        10.2423495748        5.3032092552       13.7784894808
  C         4.0584977215        1.0284996279       36.0228091654
  N         4.1150846399       -0.2628120628       36.1939411551
  O         4.6336638855       -2.1353305165       34.9212687831
  H         1.9966473527        2.1004750450       18.5080048271
  H         2.6079269558        0.9672787448       19.6697549294
  C         2.9007487564        0.4107247248       17.6358464266
  H        13.4237295177        3.0512721693       22.8554072423
  H        13.9050793836        1.6223484609       23.5972213139
  C        15.6108077755        2.8418644643       23.0417209263
  C        10.8414255915        8.0809193754       13.4654539339
  S         3.6033658818        1.9863094892       37.4343957548
  C         3.9201133565       -0.9657146707       37.4650752329
  H         2.2853999615        0.7932500627       16.8381255276
  H         3.8224760491        0.4139365960       17.0688925014
  C         2.7352517670       -0.9431255484       18.1291251642
  H        15.6240826484        3.5338962111       23.9176698520
  H        16.0122567137        3.3623270130       22.2394406594
  C        16.6540333187        1.7555429421       23.3653076439
  H        10.7428315152        9.1286822924       13.5927891633
  C        11.3909141371        7.7091286106       12.2729725579
  H         3.2242074738       -0.5581243864       38.1318978792
  H         3.3974420361       -1.9007092713       37.2781747076
  C         5.2684028205       -0.9520656847       38.2492791250
  H         1.9234163431       -0.9809567017       18.8174128584
  H         3.6111310042       -1.3054446612       18.7139424210
  C         2.5895420256       -2.0617717491       17.1348204337
  H        16.5302857458        1.5364775774       24.4037183109
  H        16.3373274298        0.8557017888       22.8355254802
  C        18.0741315915        2.0900117375       22.9806704986
  S        11.9313618917        6.1609387117       11.7598533785
  C        11.6930728276        8.8024203505       11.2554308833
  H         5.1512225137       -0.4920504048       39.2226417182
  H         5.7272203539       -1.9437528503       38.4856626271
  H         6.0866712201       -0.4366692961       37.6952424575
  H         1.8440958187       -2.7898649117       17.3380520957
  H         3.5489412401       -2.5350001546       16.8919243804
  H         2.1986440589       -1.5904894441       16.2390183129
  H        18.8033513272        1.7154071406       23.6704200404
  H        18.2413750443        3.1899472748       22.9770199907
  H        18.3408890221        1.7685208440       21.9853362971
  C        12.7502798065        6.9730562518       10.4344331777
  N        12.4247331632        8.2565175218       10.2585227350
  O        11.4353123954       10.0012979967       11.4140600761
  S        13.1610987179        6.0146189274        9.0217280470
  C        12.6311717887        8.9461782015        8.9512936078
  H        12.8844080370        9.9905883880        9.1694720408
  H        13.5386180459        8.6102074907        8.4691671739
  C        11.3536469623        8.8347807859        8.1298639504
  H        10.4049035430        9.2734519169        8.4856855641
  H        11.5750819102        9.3792981154        7.2226396234
  H        11.3047800517        7.7582442934        7.9048864509
  H         5.1176665818        1.8371958530       12.5503753326
  C         4.2548100202        2.4432291209       12.7808786890
  H         4.8105035804        3.3825755394       12.8938917624
  C         3.2843537235        2.5704946276       11.6338601189
  C         3.5339803543        2.0175783090       14.0930244462
  C         3.9360679842        2.9394607608       10.3341710309
  H         2.4276806080        3.1902421355       11.7685643358
  H         2.9812169613        1.5146767190       11.5530634702
  H         2.8886281566        1.1744662681       14.0276878682
  H         3.0067308246        2.9695316412       14.4291196760
  H         4.2867850667        1.6660200504       14.8045351029
  C         4.7142924432        1.6062073251        9.7875125109
  H         3.0488869079        3.2148656108        9.7351981604
  H         4.6076900301        3.7679673619       10.4419298210
  C         5.5081341741        1.8670021068        8.5729716683
  H         3.8751813050        0.9093663683        9.5202504156
  H         5.3526465811        1.1251794675       10.5184564783
  C         6.7822996688        2.7238588205        8.6748394108
  H         4.8314961206        2.3706979100        7.9335616476
  H         5.7633413201        0.9852825788        8.0111915047
  C         7.9712914502        1.9950461590        9.3179910808
  H         7.0276863252        2.9104563184        7.6382852066
  H         6.5023213088        3.6231790179        9.1696422588
  C         9.3016125870        2.8075196721        9.5367077213
  H         8.2621344363        1.1601699866        8.6445454571
  H         7.5533687319        1.5704313135       10.3100400112
  C         8.9479717504        4.1727642313       10.1996798037
  C         9.7696074787        3.5238842878        8.2774444695
  C        10.3916285127        1.8920536585       10.1593272134
  C         9.0419466925        5.2744862322        9.3625897152
  C         8.3350042000        4.5482898920       11.4200050182
  C         9.6268919266        4.8603723263        8.2051052562
  C        10.1964275317        2.8748610330        7.0939219941
  H         9.9765807855        1.4708469765       11.0369137139
  H        10.4436099201        1.0918081937        9.4098458062
  C        11.7876061026        2.5743522400       10.3659570605
  S         8.5014372320        6.7391134917       10.0752566347
  C         8.0591001601        5.8878520393       11.4206203437
  H         8.0908046249        3.7405273875       12.0883620846
  C         9.9407541046        5.4626942442        6.9904273932
  H        10.1860250254        1.7849130844        7.0676877413
  C        10.4927544361        3.4536056781        5.9696914561
  H        11.7336397982        3.5212372095       10.8886392738
  H        12.3679486131        2.7921200527        9.4238097930
  C        12.6823572710        1.7213034458       11.2767381382
  C         7.4990516540        6.4980442475       12.6504197339
  C        10.3975399226        4.7983654511        5.8274123948
  H         9.7971209412        6.5698434055        6.8930327206
  C        10.8434128631        3.1097488359        4.6918406399
  H        13.7177802808        2.0935829063       11.1711253544
  H        12.7300944263        0.6940834254       10.9623768168
  C        12.1565173721        1.8256620396       12.6658015430
  C         7.6615357553        7.8190052958       12.9593658897
  C         7.0011282231        5.5755174820       13.7339600605
  C        10.6944486869        5.4863109078        4.5706284384
  C        10.9072082612        4.2002315473        3.8648214455
  S        11.2010779475        1.6679259857        3.8381491947
  H        11.6929994210        2.8195287698       12.8052257412
  H        11.3707598318        1.1024864054       12.6247108848
  C        13.2729497765        1.7283268350       13.7065515998
  N         8.0181809923        8.8610843433       12.1296297664
  C         7.3909324900        8.2964795662       14.2396383672
  C         6.7898930331        6.0085047509       15.0376679075
  H         6.7594111579        4.5112104028       13.5311017127
  C        12.0314763369        6.2653262339        4.5628454686
  C         9.4694545195        6.3142562941        4.0565007479
  C        11.1743358293        3.8643937495        2.4959953819
  C        11.2928085249        2.4766620177        2.3242434469
  H        13.8097474475        2.6749413918       13.8144973702
  H        14.0083964334        0.9966691619       13.2489315085
  C        12.7472083754        1.1889189017       15.0691173027
  S         7.9191675939       10.2412032827       12.9038771051
  N         7.5860139274        9.6649207432       14.4322290797
  C         7.0186976803        7.4326041687       15.3418185385
  H         6.3708245772        5.2967877555       15.7797797734
  H        11.9860828029        7.0415804238        5.3240314533
  H        12.2041871200        6.7035938974        3.6148431669
  C        13.2577258690        5.4181973252        4.8707057011
  H         9.2119774210        7.1700199166        4.6415770646
  H         9.8009899264        6.8480146425        3.1566612078
  C         8.1470084594        5.5578321850        3.7651184243
  H        11.3560064993        4.6502130343        1.7883709143
  C        11.7147269722        1.7098761160        1.1044844990
  H        11.9733503542        0.5314079303       14.7717200029
  H        13.4846868807        0.5721529542       15.5690041598
  C        12.2148134101        2.2874871067       16.0374087257
  C         6.7976585380        8.0601496146       16.6107382972
  H        12.8866297404        4.8540205505        5.7766949441
  H        13.4572610481        4.8347664910        4.0385652159
  C        14.4423419424        6.3065181524        5.1279284971
  H         7.6927735958        5.1051045786        4.6653450661
  H         8.3007287203        4.8570749813        2.9946389324
  C         7.0757737065        6.4552357608        3.2518235743
  C        11.6688442273        0.3111953997        0.9655743727
  C        11.8581029847        2.5170210560       -0.1623470342
  H        11.1973991943        2.4863597301       15.8590859186
  H        12.8356019023        3.1528808698       15.8483500771
  C        12.4605459246        1.9132836884       17.4417961990
  H         6.7495532700        9.0822536043       16.5416129031
  C         6.5746737782        7.6071082254       17.9101555580
  H        14.1680655520        6.8548244596        6.0290344284
  H        14.4680648235        7.0578105500        4.2702951092
  C        15.7569182621        5.5526371486        5.4114100159
  H         6.7589548222        7.1516570680        3.9958458729
  H         7.4752804550        7.0622747900        2.3881447767
  C         5.8344136258        5.6622877954        2.7516600407
  N        11.4897720483       -0.5907734654        1.9971506157
  C        11.8977769263       -0.3030953643       -0.2419495898
  C        12.1462684703        1.9137318005       -1.3512037113
  H        11.7945187268        3.6240053885       -0.1675119344
  H        12.1880637480        0.9350655642       17.7141640657
  H        12.0534097325        2.6537455116       18.2086815315
  H        13.5608055993        1.8952175818       17.5161674237
  S         6.3069034973        5.9911645611       18.4013467215
  C         6.3353555042        8.6046644181       19.0224010838
  H        15.9487314024        4.7889441163        4.6551227189
  H        16.4846881013        6.2893758765        5.1470090787
  C        15.7482601746        5.2962715134        6.9001245951
  H         5.4027465835        5.1746727661        3.6282104363
  H         6.1200372802        4.8493669054        2.0870358507
  C         4.6461184935        6.5589875465        2.2025143699
  S        11.5037989920       -2.0974741007        1.3935736258
  N        11.8381415234       -1.6942088907       -0.1535615334
  C        12.2246836707        0.4053448439       -1.4222260990
  H        12.3654493376        2.6142796805       -2.1521129431
  C         5.9653762429        6.6640330915       20.0058790243
  N         6.0504797115        7.9904808592       20.1811091565
  O         6.3032260244        9.8618550694       18.8740735709
  H        15.5944494034        6.1727374047        7.3746558548
  H        14.8334627151        4.8052805206        7.1238497730
  C        16.9156342667        4.4770143695        7.3960362452
  H         4.2829079905        6.1416874728        1.2705586459
  H         3.7562344013        6.4194721937        2.9342354455
  C         4.9597345979        8.0649728073        2.0960833972
  C        12.5001027559       -0.3435900270       -2.6142585776
  S         5.7385797204        5.7374474615       21.4887327284
  C         5.9991164874        8.6733072000       21.4426663214
  H        16.6519233042        3.8767833461        8.3257794168
  H        17.2190200781        3.6876681263        6.7658467561
  C        18.1140267646        5.3286191805        7.7260919625
  H         5.8607452046        8.2532116826        1.4831238055
  H         5.2747579960        8.4909879517        3.0809370199
  C         3.8088660212        8.9326727318        1.6979182817
  H        12.2099316416       -1.3654423301       -2.5325229025
  C        13.0416343927        0.0556467211       -3.8382262171
  H         5.3761774213        8.1844708420       22.1335394767
  H         5.3849132301        9.5197559252       21.2703910521
  C         7.3793739147        8.9652190052       21.9701165861
  H        18.7200111958        4.7958788813        8.4309466552
  H        17.8283809663        6.1938940180        8.2356823159
  C        18.9486993635        5.6711856936        6.5109552229
  H         3.7606753060        8.7299397542        0.5890462285
  H         2.8664999707        8.6986359557        2.2510088187
  C         4.0743732617       10.3942633001        1.8425982640
  S        13.5707308153        1.6023104629       -4.1926672830
  C        13.0955640791       -0.9896189761       -4.8671919030
  H         7.7690491298        8.0446876063       22.4391607874
  H         7.2756720544        9.7825587488       22.5840212370
  H         8.0685394721        9.2658994000       21.1586334627
  H        19.0660004352        4.8051109197        5.8409203826
  H        18.4199624894        6.5005192820        5.9143711250
  H        19.9485701770        6.0062252558        6.7018516154
  H         5.0572369231       10.6272984219        2.3608944828
  H         4.0237459910       10.7917573834        0.8490550112
  H         3.2850971206       10.8805905130        2.4237353705
  C        14.1098926097        0.8269531127       -5.6891050462
  N        13.7694613435       -0.5312032970       -5.8868262306
  O        12.6064502236       -2.1150231447       -4.7124131725
  S        14.8553581034        1.6060751530       -7.0875899111
  C        13.9412603203       -1.3280990671       -7.0451806493
  H        14.0708333517       -2.3625284846       -6.7425317075
  H        14.8787330228       -0.9700758001       -7.4151833849
  C        12.6989700129       -1.1745997467       -8.0212321663
  H        12.7564097202       -0.2109984602       -8.5408414661
  H        11.7955152371       -1.2737736722       -7.5325438501
  H        12.6486343107       -1.9726643429       -8.7632325327
