352
 i =   123700, time =    61850.000, E =        98.6862132997
  H         9.1377734713        5.8174042207       31.9512366442
  C        10.1727457230        5.9976856293       32.2616846452
  H         9.9144168774        6.8901293997       32.7998900968
  C        11.0711726005        6.1576743459       31.0553058990
  C        10.6613843915        4.8495151075       33.1750534341
  C        10.6282440567        5.1971147004       29.9576126539
  H        10.9110786566        7.1007332478       30.5750015571
  H        12.1179668927        5.9069845655       31.2531147311
  H        10.7952122108        5.1337877325       34.2500071551
  H        10.1542470872        3.8829633783       33.1083728159
  H        11.6624873045        4.5279211886       32.8665246729
  C        11.3996596350        5.4040992188       28.6902889036
  H         9.6133266071        5.3948679867       29.6862530647
  H        10.7103545195        4.2045606783       30.2498003386
  C        10.5068766620        6.1242733923       27.6322036962
  H        12.2995413491        6.0500733893       28.9557528949
  H        11.9213387264        4.4186291645       28.3538309977
  C         9.4038877635        5.2624397486       27.0544574733
  H        11.2122618116        6.2459043036       26.7691519054
  H        10.1352246039        7.0736886473       27.9844454289
  C         8.3644704752        6.0684682471       26.2836014651
  H         9.8094673737        4.4959376583       26.4458761782
  H         8.9433090550        4.6162013204       27.7907941041
  C         7.1573033985        5.2636582838       25.7096555961
  H         8.0318641218        6.8599325911       26.9878828263
  H         8.7402326341        6.6290873306       25.4769799874
  C         6.8862792034        3.9231668186       26.3860441424
  C         7.4987336969        4.5805332077       24.4625506454
  C         5.9059350178        6.1610461248       25.6765007893
  C         7.1329737070        2.8231208314       25.5749741939
  C         6.4178580737        3.5223443655       27.6398309184
  C         7.4524066452        3.2467316851       24.3139617185
  C         7.9429928041        5.2512641814       23.2791611639
  H         6.0700082338        7.0688569275       25.0906664963
  H         5.5734394400        6.3645429841       26.7453215581
  C         4.6160427670        5.4080432020       25.1785722820
  S         6.8318616392        1.2672693811       26.3548880868
  C         6.2936925360        2.1487035319       27.7400850589
  H         6.0999675708        4.1429578550       28.4414445618
  C         7.7860522470        2.6608968862       23.1569683464
  H         7.9747282010        6.3636414859       23.3013116017
  C         8.3026339193        4.6026998037       22.1529776462
  H         4.8295115137        4.9720726128       24.2043828425
  H         4.3856280786        4.5404458697       25.7802471196
  C         3.3303292078        6.3342396391       25.0873731535
  C         5.8680344257        1.3984606176       28.9685349449
  C         8.2919120975        3.2888471686       22.0141986833
  H         7.8452803100        1.5356087056       23.0145037067
  C         8.8062935073        4.9880865886       20.9345725707
  H         2.5893529765        5.8436099282       24.4006847733
  H         3.4127865773        7.2088822627       24.5240433530
  C         2.5903656757        6.4955672750       26.4486930643
  C         5.9233368747        0.0014800373       29.1461604091
  C         5.3956283820        2.2232180462       30.1416789498
  C         8.6746735203        2.5394078666       20.8127150979
  C         8.9820023498        3.8996330474       20.1184959497
  S         9.1846195052        6.5112759793       20.1766309681
  H         1.7968620643        7.2282723131       26.3956201129
  H         3.2554960551        7.0214561521       27.2139014780
  C         2.0731551588        5.1716486123       27.1212413762
  N         6.2520007730       -1.0010514523       28.2241915619
  C         5.6099280160       -0.6107919800       30.4098398546
  C         5.0342549238        1.5955691934       31.3300346838
  H         5.1547662022        3.2804021497       30.0246738738
  C         7.5578332561        1.7888266702       19.9928836933
  C         9.8943618528        1.6617853783       20.9847560165
  C         9.3756529302        4.2970067259       18.8237337159
  C         9.6358015274        5.6886256942       18.6855281681
  H         1.5268538684        4.6702430358       26.2982890364
  H         2.9680705435        4.5743423467       27.4102461721
  C         0.9779071134        5.3952819264       28.2429354520
  S         6.1573160654       -2.4595392724       28.8986087827
  N         5.6609440134       -2.0165961717       30.3615180254
  C         5.2994724885        0.1233500461       31.5901727578
  H         4.6503861225        2.0693037384       32.1599924712
  H         6.9401351389        1.2618163228       20.6703075703
  H         8.0412393072        1.1671392912       19.2625656516
  C         6.5593370702        2.7498636249       19.2189946903
  H        10.1250474199        1.1570593459       20.0449746980
  H         9.7144614878        0.8338830036       21.6952060928
  C        11.2541164899        2.3846818586       21.3735568583
  H         9.5255584752        3.6806195006       17.9479415539
  C        10.0947627034        6.3822035516       17.4079221207
  H         0.5553040043        4.4640202210       28.6002107222
  H         0.1681790553        5.9505551304       27.7664080703
  C         1.5255240433        6.1072225402       29.4873959918
  C         4.9854732698       -0.6772959682       32.7416289528
  H         6.9515340530        3.4560271025       18.4176032637
  H         6.0450022775        3.3729871848       19.9350402045
  C         5.5086030696        1.9393116667       18.4591770317
  H        11.1203550979        2.9939067168       22.2580241461
  H        11.5260302822        3.0523285566       20.6051902606
  C        12.4321990199        1.5668053351       21.8070460772
  C        10.1939727051        7.8248044680       17.2130791962
  C        10.2282775353        5.5240754958       16.1835285898
  H         1.5598096877        7.1956192097       29.3584547407
  H         0.9642702660        5.8702475733       30.4357705669
  C         2.8298937069        5.5250297620       29.8698462834
  H         5.2268059046       -1.7816568197       32.7411025219
  C         4.6944729501       -0.2622478042       33.9814068297
  H         5.0352507339        1.3596348466       19.2638857742
  H         6.0388569389        1.2976142473       17.8345797098
  C         4.5695712154        2.7396956367       17.5838141374
  H        12.1456530778        0.9449015435       22.6196760183
  H        12.7116583618        0.7836464528       21.0864803277
  C        13.4947795982        2.5811331530       22.2266667779
  N        10.0677202242        8.8109895625       18.1893426706
  C        10.4333073509        8.3982448535       15.9652618328
  C        10.5424682867        6.0661405120       14.9307670852
  H        10.1389661642        4.4832557946       16.2549051493
  H         3.0834013116        5.8551483699       30.9009083388
  H         2.7949191526        4.4758651046       29.9185567102
  H         3.6575136542        5.8805416043       29.2589377089
  S         4.3772762667        1.3781276412       34.5164850509
  C         4.6547665135       -1.3200573633       35.0388768941
  H         4.6016803345        3.8160229233       17.5939027492
  H         4.7927692890        2.6880972164       16.5320177125
  C         3.1233600238        2.4681365163       17.8971334771
  H        13.1617147789        3.0825755319       23.1300900263
  H        13.6199274740        3.3179197153       21.4275459074
  C        14.7420474935        1.7913345484       22.6109261472
  S        10.1339079311       10.3023695383       17.4439682275
  N        10.4001612054        9.7810094508       15.9003713540
  C        10.6986586117        7.5701832699       14.7975163378
  H        10.5797537679        5.4177146570       14.0343752703
  C         4.2667508819        0.6742734198       36.1734241116
  N         4.4005628549       -0.6551595681       36.2191903671
  O         4.9037399514       -2.5138758891       34.8961504988
  H         2.5909142980        3.2399697542       17.4089588131
  H         2.9613122722        2.5983998543       19.0077063344
  C         2.7213265063        1.1157630929       17.2628618098
  H        14.5090317878        1.0639392089       23.4688041359
  H        15.1261496269        1.2737658597       21.7287734272
  C        15.8552243306        2.8101894491       22.7813809795
  C        11.0453816563        8.2431425328       13.6057583736
  S         3.9105300011        1.6312341379       37.6812579462
  C         4.3166081718       -1.4218456633       37.4779795926
  H         2.2273894115        1.4126360354       16.3492349824
  H         3.6062610975        0.6640694976       16.9736914146
  C         1.7924765685        0.2047547798       18.2216913073
  H        15.5345313595        3.4731451186       23.5155670949
  H        15.8743365447        3.2496397470       21.7752839344
  C        17.2124057212        2.2945940141       23.0703589522
  H        10.9613267571        9.3344136445       13.6472606519
  C        11.6621502038        7.7553362608       12.4500914181
  H         3.7068239673       -0.9814611122       38.3108829344
  H         3.9806181969       -2.4454862983       37.3099157055
  C         5.7179320367       -1.4856181998       38.1400383437
  H         0.8190743044        0.3277531652       17.8166774892
  H         1.7812447266        0.6125514485       19.2054293806
  C         2.2322336712       -1.2816118632       18.1080476406
  H        17.3826819906        1.3714837330       22.5262879833
  H        18.0373700698        2.9680907304       22.7324653440
  C        17.4683050740        2.1284511363       24.6198023435
  S        12.1916099697        6.1443783912       12.1497170094
  C        11.7945476843        8.7417742219       11.3201568510
  H         5.6601795898       -1.0754643321       39.1267905815
  H         6.2565038509       -2.4306808506       38.0772126914
  H         6.3485473137       -0.7718014455       37.6332172471
  H         3.2828403539       -1.2792444649       18.0467578301
  H         2.0694950647       -1.6458878131       17.1303648551
  H         2.0801328907       -1.9297180790       18.9752421821
  H        17.0569784812        1.1954887747       24.9009714363
  H        17.0402211138        2.8920080258       25.2211210628
  H        18.5731655757        2.0260856741       24.7330704219
  C        12.6426679741        6.8411673857       10.5857502726
  N        12.4040841429        8.1349075685       10.2770107038
  O        11.5619541273        9.9700377680       11.4829480914
  S        13.3747845510        5.7904769255        9.3846052353
  C        12.7253846493        8.8364268758        9.0652134515
  H        13.0310824351        9.8820582004        9.3379394826
  H        13.4816461363        8.3754090055        8.4414549161
  C        11.4111380882        9.0295437055        8.2677811085
  H        10.5226049912        9.4232339628        8.8192701075
  H        11.5127974732        9.7922169553        7.5437117959
  H        11.1083050682        8.1190928513        7.7602791539
  H         2.8879657165        3.5670326081       12.2172828899
  C         2.7398418627        2.5008199572       12.2341305413
  H         1.7397567401        2.2813652425       12.6964443845
  C         2.7049386400        1.7978451316       10.8809546937
  C         3.8418249567        1.8272485792       13.1033815989
  C         4.0355784285        2.2268254968       10.1638455156
  H         1.9300821020        2.3762226143       10.2917315871
  H         2.4796491423        0.7543110320       10.9455695791
  H         4.8198818462        2.2408637248       12.8395510935
  H         3.9656092084        0.7076557075       12.9283185005
  H         3.6122175445        1.7989860789       14.1742650377
  C         4.8317047409        1.0253526379        9.5828872181
  H         3.7685341492        2.8641251067        9.3853387328
  H         4.7132943979        2.6988999553       10.7604293527
  C         5.7155457126        1.4512309091        8.3839247386
  H         4.2246081119        0.2274427539        9.2268873176
  H         5.5351001662        0.7446522014       10.3766048959
  C         6.8525071463        2.4380833769        8.6763533182
  H         5.0555252946        2.0661810825        7.6632799691
  H         6.0287029473        0.5409117166        7.8995211875
  C         8.1086652453        1.7329820489        9.0790169580
  H         7.0110257647        2.9083795989        7.7476480577
  H         6.5588929783        3.2582748025        9.3567192069
  C         9.2249234134        2.6510574052        9.4679506483
  H         8.4518244367        1.1623315587        8.2639891889
  H         7.9922420868        1.0978060206        9.9398174994
  C         8.8682961118        3.9722563003       10.0993877890
  C         9.6038587434        3.2874186820        8.1435800964
  C        10.3690175295        1.8637721977       10.0720970523
  C         9.0075801286        5.0373445707        9.2349565977
  C         8.3674282440        4.3458963334       11.3720244371
  C         9.5663743519        4.6595426114        8.0374677709
  C        10.0664813684        2.7240450284        6.9558134761
  H         9.9360037893        1.1539563007       10.8384397105
  H        10.7670666482        1.3056709013        9.2237449132
  C        11.6562618297        2.6348162457       10.5573560961
  S         8.6360787892        6.5932869863       10.0410444659
  C         8.1428488790        5.6620920529       11.4838645084
  H         8.1753056503        3.5528432655       12.0644517817
  C        10.0009248445        5.2762656722        6.8836686895
  H        10.1609246265        1.6152415468        6.8961081918
  C        10.4292965672        3.3314156242        5.8058492550
  H        11.2698386973        3.5545480853       10.9826461382
  H        12.3319901121        2.9501255567        9.7596298269
  C        12.4310446518        1.7970145961       11.5520436590
  C         7.7899273178        6.4139672578       12.7203243928
  C        10.4840428652        4.6436720889        5.7223203948
  H        10.0272489631        6.3660847661        6.8399295294
  C        10.9470907163        2.9688745641        4.5592124050
  H        13.4038088033        2.1939438568       11.5770536915
  H        12.5142307922        0.7702486117       11.1200408504
  C        11.8017052507        1.9840113651       12.9769815431
  C         7.7900160277        7.8498522588       12.8595012284
  C         7.4110247261        5.6166207546       13.9061803097
  C        10.9317169218        5.3925834111        4.4640309564
  C        11.1979467948        4.0708052331        3.7824940408
  S        11.0439842958        1.4576388672        3.6931092020
  H        11.1038776618        2.8780228863       13.0711654511
  H        11.0932181281        1.0964267252       13.2075225131
  C        12.8705519507        1.9959721099       14.0475801172
  N         8.1179203307        8.8074119466       11.8958572104
  C         7.4840988378        8.4381172023       14.0413382845
  C         7.1880569103        6.2721533409       15.1020416896
  H         7.4609075428        4.5663467514       13.8829785695
  C        12.1383124974        6.3014201315        4.7954651751
  C         9.8309461334        6.2626035544        3.8484551183
  C        11.7276197958        3.6914252814        2.5524679792
  C        11.6635871834        2.3243239119        2.3462714585
  H        13.8112289866        2.3798795244       13.7293074961
  H        13.1296701030        0.9792673348       14.1811030742
  C        12.3367717708        2.5027720419       15.4236356602
  S         7.8752039552       10.3124312504       12.4850483674
  N         7.4114209999        9.8227696011       13.9661713138
  C         7.1021489962        7.7305471443       15.1996317316
  H         6.9213594351        5.6491151924       15.9727720077
  H        11.9094639770        7.2306320321        5.2256266669
  H        12.5307349106        6.5566584936        3.7969902343
  C        13.2824007717        5.5668670687        5.5474976016
  H         9.3674682457        6.8813091639        4.5833232218
  H        10.2404744416        7.0538604361        3.2300267731
  C         8.7610817145        5.4023914371        3.1007023140
  H        12.0426833817        4.5261705754        1.9251243159
  C        11.9402093968        1.5594691344        1.0778627055
  H        12.3298264260        3.5657037770       15.3170009604
  H        11.3567863703        2.1452094657       15.7500026631
  C        13.3393449834        2.1454414319       16.4896143329
  C         6.8696779706        8.5025475355       16.4237891965
  H        12.9323259127        5.0418562790        6.4698016289
  H        13.5630962918        4.8142108444        4.8852431385
  C        14.5125101775        6.3914071534        6.0045524128
  H         8.5123793878        4.5743709854        3.7759793831
  H         9.1408522932        4.9742095669        2.1848582337
  C         7.5087180344        6.1649390253        2.6883935643
  C        11.9476143179        0.1515697231        0.9135534719
  C        12.0963302772        2.3126356706       -0.1584548348
  H        14.3724856960        2.5448883625       16.2859056399
  H        13.4976198405        0.9954341548       16.4572718541
  C        12.8222194936        2.5091342206       17.8712112164
  H         6.8805054481        9.5494898469       16.2516641487
  C         6.4376877402        8.1004723085       17.6751085684
  H        14.0965769169        6.9981111167        6.7506249450
  H        15.0031117343        6.9581939523        5.2361729578
  C        15.6956447448        5.6071900260        6.5638275740
  H         7.0788786453        6.6771085521        3.6151307234
  H         7.6975883014        6.8202254267        1.8758901588
  C         6.4621702631        5.1766525239        2.3231735966
  N        11.7743305484       -0.7141317690        1.9994048009
  C        12.1843185198       -0.5200151772       -0.2804201790
  C        12.3591559582        1.6601238904       -1.3558455340
  H        12.1640396686        3.3662589081       -0.0387287134
  H        12.0727371070        1.7697324240       18.2882754335
  H        12.3768910586        3.4848810562       17.9066879091
  H        13.6467617372        2.4461518530       18.5982670863
  S         6.0648602983        6.4860011749       18.0934855937
  C         6.3022218890        9.1487257585       18.7216467902
  H        15.4416521143        4.9272774087        7.4070573909
  H        16.0677258271        4.9589865786        5.7204415166
  C        16.8784299003        6.5112453606        6.9855914360
  H         5.8133492867        4.9331552427        3.0926158829
  H         6.9448193694        4.2398199300        2.1177431773
  C         5.5931739685        5.6959153708        1.1234986540
  S        11.6222027174       -2.2021391863        1.4624488493
  N        12.0063672087       -1.9055733841       -0.1087683188
  C        12.4657494136        0.1795207195       -1.4633922537
  H        12.6126008192        2.2733835524       -2.2053381865
  C         5.7653960407        7.1443475458       19.6739790880
  N         5.8039280075        8.5068020015       19.7749483663
  O         6.7643914587       10.2575750296       18.6239011533
  H        17.3123714584        7.0942283093        6.1900159958
  H        16.4816726322        7.1888844875        7.7400956601
  C        17.9963241352        5.6427397236        7.6093668078
  H         6.2503718126        5.9482716791        0.2834229508
  H         5.1045259833        4.8243487958        0.7368228649
  C         4.4867179196        6.7103752103        1.5454317245
  C        12.7249124873       -0.5866849062       -2.6303334016
  S         5.3114724105        6.1339180646       21.0426861230
  C         5.6682451145        9.1205436296       21.0779004366
  H        17.8126183659        5.6145099239        8.6560717187
  H        17.8478850907        4.6587748342        7.1454592784
  C        19.4120474938        6.0880903745        7.3931711153
  H         4.3749796954        6.7052724560        2.6287202044
  H         3.5514594247        6.4241700993        1.2846035789
  C         4.9225353947        8.0802099639        1.1371904527
  H        12.4523026111       -1.5849360176       -2.6726876208
  C        13.0461388135       -0.2779891570       -3.9183188323
  H         4.8381506222        8.7200694240       21.5686515049
  H         5.4604571322       10.1653990570       20.8052916963
  C         7.0148880422        9.1435149662       21.8306576936
  H        19.9310527353        5.5848654830        8.1547834104
  H        19.4327558081        7.1522248714        7.6217736118
  C        20.0078124163        5.8624663787        6.0145113601
  H         5.9829969750        8.1598936823        1.4278621072
  H         4.9405159056        8.0005871283        0.0371138211
  C         4.1208806038        9.2565058394        1.5818294476
  S        13.4701287424        1.2940385727       -4.5879722477
  C        13.0646146188       -1.3857375924       -4.9196143849
  H         7.8581956123        8.8950747188       21.2708906090
  H         6.8943812657        8.4075499826       22.6081184348
  H         7.2589195666       10.1286453053       22.1973325678
  H        19.3093459306        5.7886874081        5.1635248671
  H        20.7372101768        6.6401292572        5.7338125270
  H        20.4944522711        4.8559702569        6.0641320742
  H         4.0403693150        9.2370066845        2.6338307667
  H         4.7285982822       10.2013477416        1.4009982691
  H         3.1534837465        9.3143381919        1.0383678620
  C        13.6828568476        0.4837426947       -6.0941873290
  N        13.5386606603       -0.8815962855       -6.0900208107
  O        12.7719755102       -2.5938561996       -4.7443722398
  S        13.9637066757        1.3928810090       -7.5682515771
  C        13.6313580711       -1.6669463260       -7.3305226187
  H        13.8088343058       -2.6791003948       -7.0547172126
  H        14.4741617873       -1.3192933429       -7.9028286940
  C        12.3443534180       -1.5869231126       -8.1632975275
  H        12.2646866456       -2.3773759704       -8.9001646605
  H        12.3176914802       -0.6869501893       -8.7287650789
  H        11.4180031254       -1.5155501708       -7.6400923103
