352
 i =   114200, time =    57100.000, E =       100.0577070478
  H        10.3948001295        4.0886890323       32.4747853247
  C        10.4809414314        5.1208398753       32.6769550373
  H         9.4671260799        5.4757867242       32.5759821241
  C        11.3337760713        5.7149313117       31.6714791285
  C        10.9700807008        5.3275591499       34.1294664369
  C        10.6290479058        6.4385311838       30.5684248943
  H        11.9413550920        6.5015112438       32.1106932677
  H        12.0434085916        5.0566967862       31.2772774964
  H        11.2452149661        6.3313313714       34.3382607984
  H        10.1542604599        5.0577772630       34.8160807598
  H        11.7876828475        4.6407251379       34.2499589077
  C         9.9304286876        5.5372403736       29.5142245795
  H        11.3491795287        6.9465899059       29.9724760437
  H         9.9244178483        7.2226564369       30.9235576804
  C        10.5667544275        5.4959087394       28.0750186061
  H         9.9354635585        4.4801167225       29.8416450954
  H         8.9805680031        5.9901750173       29.3674782620
  C         9.6986512373        4.8727017283       27.0118380566
  H        11.5376825105        4.8387040805       28.1106253883
  H        10.7192924827        6.5229595706       27.6790852680
  C         8.5642212025        5.9329310397       26.4679229279
  H        10.3404562488        4.5510136625       26.1814683436
  H         9.1989804826        3.9984054830       27.4090685416
  C         7.3156089313        5.2378781346       25.7872460412
  H         8.1649840239        6.5728111444       27.2660946147
  H         9.0465574471        6.5648069279       25.8173270034
  C         6.8073925472        3.8622962942       26.4872633941
  C         7.6855023985        4.5701663727       24.4675550392
  C         6.0646853800        6.2403303930       25.6621526997
  C         6.9764303657        2.8024851430       25.5709313961
  C         6.1360134262        3.4468943500       27.6463531515
  C         7.4793741588        3.2072841062       24.2749299875
  C         8.0957360972        5.2162486598       23.2894275505
  H         6.3870031893        7.1853103026       25.2246697249
  H         5.7465424899        6.4969318069       26.6512673834
  C         4.8480737317        5.7049090215       24.7939776299
  S         6.5950481715        1.2798702003       26.2715125844
  C         6.0798434722        2.0828740083       27.7570927201
  H         5.7641284102        4.2501197077       28.3319626180
  C         7.8317609136        2.5810564873       23.0757762802
  H         8.0744353855        6.2981090364       23.2945978086
  C         8.3675358780        4.5622242395       22.0795908590
  H         5.2033109058        5.7283598905       23.8018038329
  H         4.4843416540        4.7189513854       25.0764223770
  C         3.5700996679        6.6134921862       24.9720905460
  C         5.5673210294        1.3674795352       28.9509595524
  C         8.3265504097        3.2072866611       22.0058360411
  H         7.7313748114        1.4930012323       23.0677078337
  C         8.7935346872        4.9452487174       20.8311187215
  H         2.8301507895        6.3670429436       24.1676941121
  H         3.8178862019        7.6310762642       24.7553844477
  C         2.9684002469        6.4974598803       26.3082835682
  C         5.6151041790       -0.0684058725       29.1450330718
  C         5.1349708682        2.1819528920       30.1259346567
  C         8.7267438172        2.5703260838       20.6983940989
  C         9.0266108197        3.8646778793       19.9878394349
  S         9.0715103330        6.4468517780       20.0851655627
  H         2.1964908251        7.2757956969       26.3149182878
  H         3.6840243467        6.8171164230       27.0669965884
  C         2.2872600508        5.1122168827       26.4390564775
  N         5.9377392775       -1.0040160135       28.2128635699
  C         5.2525465988       -0.6720010943       30.3950482586
  C         4.8924294455        1.5696705456       31.3316923115
  H         4.8803425032        3.2287948243       30.1076414511
  C         7.5684820341        1.8243362639       20.0165340809
  C         9.9249831967        1.5565496559       20.7572792911
  C         9.3441792760        4.2932283427       18.6511466917
  C         9.5526978228        5.6670422118       18.6257705800
  H         2.0619110112        4.7213243528       25.4858737339
  H         3.0479026331        4.4543240635       26.8398999800
  C         1.0425385840        5.1593483956       27.3800748837
  S         6.0071482418       -2.4586060656       28.9571444274
  N         5.2513346606       -2.0450500663       30.3434476014
  C         5.0008949495        0.1193319218       31.5738786112
  H         4.7051783391        2.1121173197       32.2865920957
  H         7.1932068865        1.0026427899       20.6453184155
  H         7.9952290447        1.2071688860       19.1965967874
  C         6.3857821621        2.7706979699       19.5077096298
  H        10.1716588973        1.0679573773       19.7719474040
  H         9.5198155441        0.7323583618       21.3208332779
  C        11.2205452073        2.1404379474       21.4308582136
  H         9.3876060374        3.5292857206       17.8787714933
  C         9.8903732128        6.3722378692       17.3548159190
  H         0.5106902709        4.2777156636       27.2520562859
  H         0.3844065589        5.9482253412       26.9588511493
  C         1.3011958595        5.4186821277       28.8528903926
  C         4.7379610768       -0.6066279461       32.7766854668
  H         6.7219649353        3.2677480898       18.5505229493
  H         6.1674805284        3.5173108968       20.2533853535
  C         5.1627097926        1.9042653427       19.2785620173
  H        10.9829308757        2.7253485452       22.3529705264
  H        11.5471582677        2.8785050002       20.7414662644
  C        12.4140218093        1.1726113076       21.4413053688
  C         9.8911053358        7.7673022208       17.1652798216
  C        10.2456848984        5.5195543830       16.1684298012
  H         0.7750908165        6.3310529010       29.1211735404
  H         0.8039225925        4.6618353283       29.4739278955
  C         2.7247951558        5.4690771050       29.4752799116
  H         4.9561344994       -1.6396693548       32.7540684823
  C         4.4256493318       -0.2552826382       34.1458042311
  H         4.8074311822        1.4832935057       20.2423227619
  H         5.5922762809        1.0953186639       18.7103456602
  C         4.1621161556        2.7159005659       18.5526165952
  H        12.1584675206        0.6102342668       22.2916899547
  H        12.4642221764        0.6053591192       20.5119903107
  C        13.6630350626        2.0120855680       21.6039093624
  N         9.4145478894        8.6910589356       18.0968435886
  C        10.1699802102        8.3828347200       15.9414837988
  C        10.5930075914        6.1437142218       14.9925578499
  H        10.2271249225        4.4356223434       16.1466826505
  H         2.7166792843        5.1923279614       30.5835148095
  H         3.3450793465        4.6639140871       29.0484343105
  H         3.3359623977        6.3067575258       29.2269042100
  S         4.1023570463        1.3063461224       34.7537088389
  C         4.4179364770       -1.3867647853       35.1662961267
  H         4.0909354035        3.6459178959       19.0945197370
  H         4.5331707605        3.1330360760       17.5820304282
  C         2.7498386141        2.0619914671       18.5483119731
  H        13.5271458600        2.8910803053       22.2090638174
  H        13.9048456209        2.5007571499       20.6534224430
  C        14.7869464478        1.2690212288       22.1796496092
  S         9.5139443166       10.1847925732       17.4209249743
  N        10.0371852515        9.8076789030       15.9641437311
  C        10.4798326653        7.6254287278       14.8516589281
  H        10.7982176810        5.4907202793       14.1682632614
  C         3.9369329619        0.5262671312       36.3409837398
  N         4.0620720322       -0.8349090042       36.3703910741
  O         4.5140659924       -2.5952506546       34.9423168846
  H         1.9731529058        2.7839135248       18.6213281178
  H         2.5397512257        1.4620126517       19.4610635919
  C         2.5716452073        1.1340771597       17.3979820559
  H        14.7122977269        1.0468533966       23.2259962367
  H        15.0489529177        0.4355400541       21.6053740930
  C        16.0687740296        2.0848333112       21.9049119777
  C        10.7438918539        8.3169163897       13.6254547571
  S         3.7674963189        1.3731850074       37.8751506497
  C         3.9407396705       -1.7072328521       37.4937916754
  H         1.8757648260        1.4943402602       16.6107878538
  H         3.5315962110        0.9929748494       16.9003302754
  C         2.0635171817       -0.2430105136       17.9137234277
  H        15.9538883083        3.1579462120       22.2321298373
  H        16.2818490209        2.0202319761       20.8498096176
  C        17.2325292023        1.6073975303       22.7516034647
  H        10.6629449119        9.4287839024       13.6645177988
  C        11.2894500239        7.9808433876       12.3561578208
  H         3.4644667822       -1.0851982608       38.2552986638
  H         3.4040740682       -2.6549135934       37.3697302757
  C         5.3273298404       -1.9807473682       38.0830749381
  H         0.9998863496       -0.0310794364       18.2309592649
  H         2.5463485595       -0.5860463487       18.8000067668
  C         2.0918010710       -1.3475407093       16.8368347474
  H        17.3044816412        0.5174504775       22.6728863095
  H        18.1248050886        2.0395551263       22.3703974836
  C        17.1262773427        1.8862139948       24.2604785470
  S        11.6630356095        6.4233942227       11.8571896513
  C        11.5230879649        9.0405049668       11.3224468268
  H         5.7941984413       -2.7805790678       37.4455025565
  H         5.9464085680       -1.1191678415       38.1890769391
  H         5.2167225132       -2.3747188431       39.0759940475
  H         1.4712843759       -1.1501789207       16.0147384331
  H         1.6421295696       -2.1626243851       17.3781551960
  H         3.1170900617       -1.4982709727       16.4886941396
  H        16.3299760403        1.4356985977       24.8447361809
  H        16.9054825504        2.9424729726       24.3322513080
  H        18.0438840003        1.7093482113       24.7660850328
  C        12.1270051061        7.0775016954       10.3264536772
  N        11.9632676106        8.4190923272       10.2545180933
  O        11.2904368950       10.2785343365       11.4236810764
  S        12.9460992213        6.2313464913        9.0283765294
  C        12.2097525383        9.0879831729        8.9742969108
  H        12.2286109033       10.1916107317        9.1623066620
  H        13.2512352852        8.9674278359        8.7055462159
  C        11.2348888896        8.8343361049        7.8359735377
  H        10.2344646896        8.9996439911        8.2123124137
  H        11.3638083516        9.7053511837        7.1457505152
  H        11.4726003929        7.8957361257        7.3027630565
  H         2.9844658768        4.0553931921       12.5506006465
  C         2.7723259402        3.0023652275       12.4672174189
  H         1.7257308778        2.9397960594       12.8539557085
  C         2.6221015354        2.6325843820       11.0487218228
  C         3.6808086036        2.1046524704       13.2228840948
  C         3.9490205751        2.7813723995       10.2708610758
  H         2.0614550661        3.4320380531       10.6211813862
  H         2.0411058721        1.7366312041       10.8940172485
  H         4.7305981306        2.3967302179       13.0428366009
  H         3.4201700708        1.0708403551       13.0071234493
  H         3.4683920626        2.1160375228       14.2898484115
  C         4.6177902160        1.4002677885        9.9879926323
  H         3.8133429957        3.3723587078        9.3486529633
  H         4.6204877863        3.4420156352       10.8507820538
  C         5.3385363997        1.4048269054        8.6340481470
  H         3.8737908894        0.6404967855        9.8891641957
  H         5.2121080207        1.1500809471       10.8441212395
  C         6.5560279774        2.3686603852        8.5452789652
  H         4.6645606736        1.6737212112        7.8204755622
  H         5.5217178988        0.4004380500        8.4202818620
  C         7.8448512584        1.6715920105        9.0635030057
  H         6.7623166441        2.7010750682        7.5625620132
  H         6.2053883928        3.2434922403        9.0961627417
  C         9.0892576785        2.5841621821        9.2857988196
  H         7.9884911027        0.8730825702        8.4462117471
  H         7.7554585784        1.1616666530        9.9883306554
  C         8.6541665835        3.9175199580        9.8655882039
  C         9.6298399606        3.2548125790        8.1032877649
  C        10.1886680195        1.9265557556       10.2373375131
  C         8.9653584768        5.0245598976        9.0626668262
  C         8.0122188383        4.3533515036       11.1131029977
  C         9.5319529089        4.6129283374        7.8715141515
  C        10.0879806559        2.6252257435        6.9609874405
  H         9.5898223038        1.5812789332       11.1576227464
  H        10.5565223907        0.9966689437        9.8369315639
  C        11.4171966873        2.8704544787       10.4728934186
  S         8.6822751035        6.5576551156        9.8031112649
  C         7.9059617243        5.7058629669       11.1393555248
  H         7.8305320123        3.5863487994       11.9147790187
  C         9.9347412270        5.1818541311        6.6745849721
  H        10.1833506832        1.5679118886        7.0396162207
  C        10.4776395502        3.2206146536        5.7449643426
  H        11.1253588313        3.8218366307       10.8623274007
  H        11.8711110054        3.0595195046        9.5240972564
  C        12.4229217548        2.2492455426       11.4670863061
  C         7.3195868905        6.4594891690       12.3070256406
  C        10.4322516134        4.5527206400        5.5433995731
  H         9.9599119444        6.2769824699        6.5301276451
  C        10.8900244181        2.7621765676        4.5220766241
  H        13.3599211650        2.8682234631       11.3508761756
  H        12.6913848857        1.2570826594       11.2299165459
  C        11.7888661194        2.1622000592       12.8403656435
  C         7.5740906325        7.8261022058       12.5515267290
  C         6.8643746223        5.5867274100       13.4661356552
  C        10.8749971490        5.1744595052        4.3057147349
  C        11.1856855692        3.8157327960        3.7063974954
  S        11.1074225104        1.2386826943        3.8682156822
  H        11.3251556946        3.1322147040       13.1373934456
  H        10.8845964637        1.5839589330       12.8396613248
  C        12.8695355501        1.8679453866       13.9164615613
  N         7.9573064754        8.7313998064       11.5826866099
  C         7.3549818858        8.3954953127       13.7878178467
  C         6.6542476111        6.1544135293       14.7180966000
  H         6.6573313855        4.5376589660       13.3675242051
  C        12.0725130195        6.1655710734        4.2164449299
  C         9.5046623668        5.6860034940        3.6560161595
  C        11.6314914884        3.3712615232        2.4373551197
  C        11.6578093431        1.9986630982        2.3920966593
  H        13.6987720544        2.5164411536       13.6562307571
  H        13.2845767096        0.8582179455       13.7868340208
  C        12.4563691339        2.0996293232       15.3046853491
  S         8.0977015680       10.1698947164       12.2911438982
  N         7.6526514697        9.7679021507       13.7839798241
  C         6.8245378855        7.6845998999       14.9299205182
  H         6.3910208791        5.4838071845       15.4980230556
  H        11.6731752894        7.0741484849        4.6449146992
  H        12.3797482099        6.2702430619        3.1541414839
  C        13.3049750717        5.6338986621        4.9628484576
  H         8.9152131304        6.3458982333        4.3755558175
  H         9.6659330742        6.3746957910        2.8144393198
  C         8.5613456659        4.6474431453        3.0990094499
  H        11.6819684619        4.1320647546        1.6011345728
  C        11.8587426345        1.1978153924        1.1598871243
  H        11.7820909601        2.9326676443       15.2685729888
  H        11.8179074218        1.3388566901       15.6874106570
  C        13.7569291797        2.1305324474       16.2292997545
  C         6.6801005606        8.3438365239       16.1868103777
  H        13.0222381120        5.4238930961        5.9809609761
  H        13.4291921364        4.6634389965        4.5170130233
  C        14.6268070897        6.3835235183        4.6738142374
  H         8.3612393622        3.8903618719        3.8539795175
  H         8.9765603256        4.3165418517        2.1754525501
  C         7.1415086762        5.2717205718        2.8552215424
  C        11.8919218027       -0.2486466525        1.0685468173
  C        12.0977958104        1.8622907682       -0.1556532412
  H        14.5577022603        2.7409483447       15.7901660963
  H        14.1614963499        1.1525658199       16.1625247343
  C        13.3323088511        2.5746697772       17.6288925294
  H         6.7586002290        9.4037749366       16.1785061487
  C         6.3297683329        7.9001191983       17.4423064819
  H        14.4838043197        7.4192860861        4.6589105345
  H        15.2599240058        6.0001702685        3.8213895482
  C        15.5273896092        6.3131585070        5.8801987911
  H         6.5749065119        5.0337787974        3.7119365184
  H         7.3013102108        6.3731578955        2.9685000841
  C         6.5406639632        5.0092804353        1.4481366204
  N        11.6570085074       -1.1093067596        2.0765283231
  C        12.1072624389       -0.9218701703       -0.1296330586
  C        12.3105504189        1.2164357531       -1.3608216493
  H        11.8991181555        2.9051509872       -0.1595395406
  H        13.9493959016        3.4465381158       17.9094604970
  H        13.4984046447        1.8044363084       18.4068321976
  H        12.2192797085        2.7405723367       17.6227857753
  S         6.1647369180        6.2848867507       17.9620006956
  C         6.0736318096        8.9658831013       18.4869271661
  H        16.2758852576        7.1493214640        5.5751285956
  H        15.0412450548        6.6466309141        6.8227789524
  C        16.3561420085        5.0045060036        5.8604102822
  H         6.4672350673        3.9402110290        1.4906155176
  H         7.1267598302        5.3663855810        0.6325525242
  C         5.0866627815        5.6335178420        1.4659479655
  S        11.7255961726       -2.6910007396        1.5418263749
  N        12.0958926060       -2.3532103789       -0.0271204964
  C        12.4263589630       -0.2685279800       -1.3319760723
  H        12.4503820317        1.7689036644       -2.2479186803
  C         5.7974110920        6.9337878055       19.5200675231
  N         5.7988770194        8.3283733648       19.6229187177
  O         6.1479797149       10.2142339680       18.2378450093
  H        15.6212615073        4.2162670729        5.8397323638
  H        16.9231227432        4.8706366749        4.9751919032
  C        17.2492187391        4.8272035678        7.0863665617
  H         4.4863335037        5.0834697522        0.7253971192
  H         4.5873152318        5.5192112152        2.4134127660
  C         5.2720085354        7.1032252399        1.0512643608
  C        12.7724426787       -1.0701764772       -2.4802686884
  S         5.5655233025        6.0698682643       21.0036309848
  C         5.6958007942        9.0326746825       20.9183626471
  H        16.5797241011        5.0489644184        7.9529921988
  H        17.5873921921        3.7963404994        7.1448554906
  C        18.5227008830        5.6698359693        6.9939563339
  H         5.1272965763        7.2809612754        0.0071274091
  H         6.2538375676        7.4921574266        1.2835428351
  C         4.2528313872        7.8760445117        1.8634876114
  H        12.6092915147       -2.1499703883       -2.3829865714
  C        13.3879522602       -0.7496795857       -3.6740983235
  H         4.9723067663        8.6886344117       21.6813970688
  H         5.3780081767       10.0534748803       20.7680138035
  C         7.0986903232        9.0115058447       21.5528836248
  H        19.0023659798        5.6371417966        7.9697367957
  H        18.1867804886        6.6989060636        6.8797494243
  C        19.3829287606        5.1927164608        5.9021660453
  H         4.0066839538        8.7868595737        1.3755484342
  H         3.3417667042        7.3417329134        2.1014262620
  C         4.8294061431        8.2357557946        3.1706572462
  S        13.8659313828        0.8534831589       -4.2392786990
  C        13.3832018260       -1.8288636858       -4.7438905347
  H         7.9011714990        9.0800631837       20.7579530165
  H         7.1050692424        8.1113158477       22.1602086252
  H         7.2724380307        9.7184726221       22.3294543403
  H        19.3038171160        5.9180744008        5.0359036777
  H        20.3751629921        5.1162505130        6.1320477355
  H        19.1086400747        4.2346215045        5.4970674377
  H         5.0832151725        7.4063014049        3.7979209874
  H         5.7129635873        8.8732550819        3.0563799875
  H         4.1105705460        8.9122229599        3.6576799013
  C        14.1803793813        0.0860599488       -5.7900860946
  N        13.9536826018       -1.2976273108       -5.8562419079
  O        13.2306819950       -3.0364779865       -4.5543915874
  S        14.8029839587        0.8892963949       -7.2999454077
  C        14.1529027523       -2.0197812116       -7.0327377601
  H        14.1942288832       -3.0911037204       -6.7270514465
  H        15.0670407496       -1.6673432150       -7.6088507222
  C        12.8932395544       -1.8238692627       -7.9506153634
  H        12.5132651219       -0.7797324174       -8.0250574680
  H        12.0878745004       -2.4544377133       -7.6925286670
  H        13.0734086715       -2.0375091049       -8.9439061296
