352
 i =    92300, time =    46150.000, E =       100.3270497597
  H        11.5468113115        7.6371939135       33.0249386847
  C        11.4209452940        6.5781694759       33.0253710767
  H        12.3155075438        6.2527495479       32.6221919829
  C        10.3224918692        6.2840326254       31.9601228157
  C        10.9382418701        5.9663170703       34.3113762033
  C        10.7466407452        6.6192787149       30.5692582061
  H        10.2797975279        5.2390117154       32.0949126475
  H         9.3221779326        6.6667120475       32.1578778291
  H        11.6835917647        6.0565135599       35.1516167174
  H        10.0287198905        6.3855010224       34.7403821907
  H        10.7880846236        4.8620548036       34.1686987111
  C         9.7530871135        6.1697330420       29.4789852364
  H        11.7829173867        6.2650653311       30.3189043888
  H        10.8786095157        7.6507312985       30.4420831756
  C        10.3722535265        5.9069980977       28.1238879624
  H         9.2243096877        5.2990884235       29.7995736634
  H         9.0602226008        6.9450329289       29.5148998510
  C         9.4610494738        5.0493497300       27.1759032313
  H        11.3413240304        5.4193039138       28.2086518684
  H        10.5612576594        6.8727157828       27.6819262859
  C         8.2371961765        5.8860607218       26.7138953721
  H        10.0764777632        4.8652811113       26.3161247563
  H         9.1804805990        4.0584368280       27.6322830460
  C         7.2492447618        5.1881673773       25.7809433066
  H         7.7600572760        6.0123096919       27.6681435791
  H         8.5276727350        6.8395134661       26.2871512937
  C         6.9198224212        3.8122610707       26.4697189410
  C         7.7246211563        4.4201576949       24.5413128652
  C         6.0099190176        6.0832673405       25.3845557028
  C         7.2420212917        2.7142735953       25.7111508718
  C         6.3065552995        3.4688479689       27.7247993690
  C         7.8078304874        3.0451683024       24.5187338447
  C         8.1383804736        5.0088131917       23.3359407888
  H         6.3589234033        6.8500840126       24.6602443242
  H         5.5730098241        6.6526818023       26.2456591554
  C         4.8576723514        5.2328206218       24.7938519790
  S         6.9830353255        1.2100635188       26.5025378004
  C         6.3310282228        2.0709349047       27.8772993134
  H         6.0193477829        4.2333572589       28.4115664763
  C         8.1853415515        2.3947968495       23.3708979777
  H         8.3157506164        6.0411429445       23.2505586528
  C         8.5059718825        4.3165428495       22.2215977345
  H         5.2082588182        4.7260981656       23.9110361456
  H         4.5802782278        4.3957400724       25.4669642425
  C         3.6410023131        6.0532300431       24.4313365009
  C         5.8712285281        1.4456699152       29.1324592901
  C         8.5866963084        2.9852777077       22.1726482784
  H         8.3030690872        1.3139804304       23.3186898927
  C         8.9693463462        4.7467073681       20.9422446713
  H         3.0046440439        5.4213033839       23.8281766885
  H         4.0213834241        6.9248601141       23.8729401174
  C         2.7421853895        6.4471452194       25.5917778895
  C         5.8109685076        0.0631407870       29.2934747491
  C         5.5559157498        2.2885365631       30.2583111672
  C         8.9778586669        2.3242608367       20.8872291419
  C         9.2249595679        3.6859145645       20.1344611327
  S         9.1332900548        6.3027493537       20.3273099565
  H         2.0266834948        7.2055103020       25.3015468495
  H         3.4240764537        6.9001798366       26.3688700499
  C         2.0055827376        5.3090491307       26.3586425914
  N         5.9373514965       -0.9580862281       28.3610372388
  C         5.6064105312       -0.4597473514       30.6061718129
  C         5.2332955131        1.7996421968       31.5019053660
  H         5.5429358519        3.4226007595       30.1503961374
  C         7.8230982661        1.5481617482       20.1827611248
  C        10.2463831898        1.5516674716       21.0584350155
  C         9.5601862660        4.1008878140       18.8623280229
  C         9.6339945421        5.4845788072       18.8646494669
  H         1.3166864441        4.6762314284       25.7987733796
  H         2.8244782894        4.6198369772       26.6014848987
  C         1.4585362556        5.7633419400       27.6784840590
  S         5.9050819822       -2.3900297782       29.0511786186
  N         5.6204799052       -1.8545416926       30.5915267856
  C         5.3348987532        0.3157438214       31.7710699683
  H         4.8925754817        2.5473631412       32.2070204556
  H         7.7419957146        0.6094929546       20.7952896516
  H         8.2389575117        1.1191478111       19.2600349412
  C         6.4888150712        2.2118381956       20.0653646820
  H        10.4537615400        1.1041316062       20.0670387395
  H        10.1493236486        0.8103747347       21.8471477101
  C        11.3849158220        2.5323588426       21.5080015563
  H         9.7655587736        3.4136539661       18.0796491034
  C         9.8736563801        6.3464556843       17.6466066028
  H         0.5611716572        5.1871007703       27.8939152586
  H         1.0888313353        6.8635921402       27.5735307381
  C         2.6039528657        5.5953946333       28.7851136756
  C         5.0931666010       -0.2964331224       33.0595128833
  H         6.5302651142        3.1069763340       20.7688625034
  H         5.7984978058        1.5298415817       20.4783836258
  C         6.0269198670        2.3540153586       18.6019641321
  H        11.1861409610        2.9176846847       22.4362821056
  H        11.5466211928        3.3392290717       20.8153725583
  C        12.7312958322        1.7417058863       21.6731439557
  C         9.9075604490        7.8112825635       17.5925301757
  C        10.1330370028        5.6952130440       16.3368804310
  H         3.1736611147        4.6948845718       28.7286344790
  H         3.2504982296        6.4514006536       28.7973002003
  C         1.9562457273        5.6140742831       30.1409486434
  H         5.1468358522       -1.3667804953       33.0094310510
  C         4.8047254135        0.2075119074       34.3135355832
  H         6.0940643384        1.3131082368       18.2974231654
  H         6.6680249622        3.0961464591       18.1164184482
  C         4.5911928805        2.7861606102       18.5924479968
  H        12.4821160094        0.7473816988       22.0801663239
  H        13.1993892171        1.6942941364       20.6953299911
  C        13.8095169275        2.5308071294       22.3794165917
  N         9.6496276471        8.6243155524       18.7109291958
  C        10.0709199970        8.5400668440       16.4097296463
  C        10.2143153862        6.3745316313       15.1017097896
  H        10.1974657520        4.6391492495       16.3306929719
  H         1.3521190158        6.5212716080       30.3678709266
  H         1.3939762378        4.7436586624       30.4590241930
  H         2.8235143831        5.4752938043       30.9008926360
  S         4.5079393850        1.8140286451       34.7244259578
  C         4.6464742242       -0.7834876594       35.3776115403
  H         4.2794281927        2.9709059911       19.6602230028
  H         4.6778343953        3.7530399682       18.0868458105
  C         3.7053539497        1.7296652662       17.9048902033
  H        13.3607433233        3.3284446969       23.0074781379
  H        14.3789384551        2.9595720360       21.5308895897
  C        14.8645698046        1.7199319724       23.2171890202
  S         9.6283427938       10.1916598464       18.1881940656
  N        10.0556458420        9.9813025839       16.6417516767
  C        10.2948617830        7.8170560329       15.1349862210
  H        10.4323375737        5.7573984682       14.2567021203
  C         4.1950583318        1.2612084655       36.3416933919
  N         4.2692848245       -0.1129294127       36.5212498763
  O         5.0463405908       -1.9522378592       35.3929918125
  H         4.1804856075        1.3633197070       17.0092495628
  H         2.7541849921        2.2132496194       17.6865691874
  C         3.3417765057        0.5508084860       18.7435625626
  H        14.4075219142        1.4823273363       24.1992956180
  H        15.1669685482        0.8322098151       22.6735060916
  C        16.0419549349        2.5989025562       23.5999001652
  C        10.6424791952        8.6128767433       13.9872105610
  S         3.6012554758        2.1541165695       37.6750934477
  C         4.3361319144       -0.8357452997       37.7565730941
  H         4.2392444497        0.0408896056       19.1571348081
  H         2.6875718503        0.8706841656       19.5588100244
  C         2.6858666616       -0.5396557280       17.8460261663
  H        16.5516906607        2.1682012694       24.4455436303
  H        15.6074180298        3.5151340165       24.0585208063
  C        16.9831102801        2.9067464898       22.4191603298
  H        10.2443260694        9.6671195747       14.0722166401
  C        11.3773523533        8.4009791846       12.7933666020
  H         3.9174179268       -0.3381546991       38.6323384079
  H         3.9135494798       -1.7846477751       37.5888688926
  C         5.8270833880       -0.8943603201       38.1344267250
  H         3.4270540768       -1.0757826847       17.2173544560
  H         1.8822554824       -0.0791568722       17.2754068506
  C         1.9824384634       -1.6059168251       18.7742522306
  H        16.6984631269        2.3940473155       21.4900129063
  H        16.9729226269        3.9950463035       22.2476411861
  C        18.4394932572        2.4340287328       22.7759913297
  S        11.9529247905        6.8389488486       12.2993606163
  C        11.5313565385        9.4930945232       11.8396168922
  H         6.4614821272       -1.1928709763       37.2333230961
  H         6.1308834537        0.0690839115       38.5133228480
  H         6.0069952049       -1.6795914603       38.8440202740
  H         2.5766952757       -1.8724360582       19.6489002427
  H         1.6400938166       -2.5313550382       18.3164360107
  H         1.0052775336       -1.2313609193       19.0921109022
  H        18.7542147241        2.8346384661       23.8002059327
  H        19.1548177403        2.7750045915       22.0213717546
  H        18.5056152126        1.3906805904       22.8806900592
  C        12.4000071968        7.7140462948       10.8200375520
  N        12.2195529474        9.0242610588       10.8131417297
  O        11.1202706292       10.6619442123       12.0793078167
  S        13.2157531880        6.9360315531        9.4847438125
  C        12.4732230265        9.9380115365        9.6762027926
  H        12.6383991961       10.8700961873       10.1025763518
  H        13.3991020917        9.7854821183        9.1040355342
  C        11.1930236505        9.9269686615        8.8645450080
  H        11.3356125143        9.3032953999        7.9669270120
  H        10.2410720511        9.6379640049        9.3234802748
  H        10.9663837398       10.9514759767        8.5830132459
  H         4.2926116452        1.1987551083       12.7754286484
  C         3.7312831830        2.1214290640       12.8383692260
  H         4.4439956910        2.8036712606       13.2909466906
  C         3.1955743995        2.5827532751       11.4792635885
  C         2.5967951100        2.0837280103       13.9167776842
  C         4.3359707340        2.8655049014       10.5452174435
  H         2.5452943100        3.4160211604       11.5075407266
  H         2.6465559200        1.6731933826       11.1532745634
  H         1.8642414476        1.3023247050       13.8597363802
  H         2.0985674574        2.9793924245       13.7373843232
  H         3.0180474352        2.0820247330       14.8810716572
  C         4.8165422483        1.6636517239        9.7008673584
  H         3.8873219109        3.5948591981        9.8420303240
  H         5.1350296635        3.2935274364       11.1369878291
  C         5.5939839846        2.0606855745        8.3710336227
  H         3.8637493136        1.1720690783        9.4537680613
  H         5.3833730133        0.9596576393       10.3671801615
  C         6.8940887325        2.8540052734        8.5948513852
  H         5.0522395596        2.5237247307        7.5834704863
  H         5.8188820091        1.1422661653        7.8485432674
  C         7.8836375692        2.0470109605        9.5309016221
  H         7.2541265627        2.8566930161        7.6220649545
  H         6.6921774339        3.8785691348        8.9048642490
  C         9.1944760492        2.8944378084        9.6746597248
  H         8.1948578839        1.1175300366        9.0321879453
  H         7.5033599778        1.9001400414       10.5477833076
  C         8.8734623211        4.2139439848       10.3176655234
  C         9.6425912172        3.5689720272        8.3835080342
  C        10.3238882596        2.0857738508       10.2923256813
  C         8.9671502825        5.2600531674        9.4276572513
  C         8.3295899301        4.6946597003       11.5364086062
  C         9.5532299060        4.8964076642        8.2495567169
  C        10.0861356307        2.9113705178        7.2600266680
  H         9.9995375045        1.3789654500       11.0213007862
  H        10.6458183243        1.3560622253        9.5604804581
  C        11.5596979638        2.9257963430       10.7197629151
  S         8.5530237970        6.8230867956       10.0487010749
  C         8.1932677509        6.0652662840       11.5972602511
  H         8.1357453998        3.9356225042       12.2556183267
  C         9.9480097268        5.5565193334        7.1554271438
  H        10.1516667686        1.8742796362        7.2936558146
  C        10.4315597217        3.5015267234        6.1120183109
  H        11.2952078738        3.8545613047       11.1162345798
  H        12.1860888917        3.0626596807        9.8721902897
  C        12.4914488531        2.2342835722       11.6881554336
  C         7.6188848525        6.7456494801       12.8310959965
  C        10.4072737678        4.8789500730        5.9852875589
  H        10.0147906996        6.6391976875        7.1635467829
  C        10.8110393598        3.0872576563        4.8860098139
  H        13.4820167746        2.7240653885       11.4872322880
  H        12.5193144355        1.2397803450       11.2292278568
  C        11.8747085859        2.2122482481       13.0552605519
  C         7.6766276088        8.1520105522       13.0165857672
  C         7.0324708423        5.9464939127       13.9350819795
  C        10.7910579066        5.5216330599        4.6916524302
  C        11.0466967923        4.1242155370        4.0487598766
  S        10.9767158522        1.5284833093        4.0685572399
  H        11.5047295736        3.2149239748       13.2674516744
  H        11.0222574102        1.5177537735       13.1936484143
  C        12.9065265821        1.9142232892       14.1369156550
  N         8.1014566207        9.0479993908       12.0412157926
  C         7.4039994449        8.7195926170       14.2186537089
  C         6.7238107025        6.5468693111       15.1855793139
  H         6.8632594592        4.9011622595       13.7813084937
  C        12.1361811920        6.2600997051        4.9321644256
  C         9.7308545041        6.4197813714        4.0039383943
  C        11.4975079736        3.7234263346        2.8021681346
  C        11.4570476419        2.3468984127        2.6789896955
  H        13.7181550502        2.6156231854       14.0294853642
  H        13.2379535589        0.9104094758       13.9771343067
  C        12.3015160321        2.1634343018       15.4968044718
  S         7.8320781595       10.4931617888       12.6282321317
  N         7.2444818947       10.0511069847       14.0791670002
  C         6.9522173139        7.9818063995       15.3705494819
  H         6.4548573225        5.8960967588       15.9967595758
  H        11.8884270668        7.1686769547        5.3989022487
  H        12.5726107849        6.6183612427        3.9455862320
  C        13.1913106294        5.5821246972        5.7546701031
  H         9.2621649351        7.1954147724        4.7105875027
  H        10.0654295135        6.9067392402        3.1114135476
  C         8.5943336322        5.5845764635        3.4460805996
  H        11.5887756030        4.5333113735        2.0467608746
  C        11.6338404989        1.5699350482        1.3863243461
  H        11.7705117803        3.1376708649       15.5684232867
  H        11.4553399685        1.4488223678       15.7038315767
  C        13.3250307009        1.9927396867       16.6337792492
  C         6.7009583973        8.6848368201       16.6147279723
  H        12.8938913308        5.4863851059        6.7814013352
  H        13.3252057019        4.6113982506        5.3062169436
  C        14.4234245570        6.3618285235        5.7866621989
  H         8.1718736818        5.1587970113        4.3699006525
  H         8.8642240998        4.7802825136        2.8033484829
  C         7.5299942952        6.5242187542        2.7552707244
  C        11.7597400816        0.1497420057        1.2347213190
  C        11.6566950203        2.2601299434        0.1217571866
  H        14.3588463778        2.4412550065       16.3132049785
  H        13.4491733955        0.9396009098       16.7999082766
  C        12.8459930387        2.8034082919       17.8449644073
  H         6.6478761370        9.8107412936       16.5359300701
  C         6.3805276974        8.1969863393       17.8756115918
  H        14.1986557992        7.2322525937        6.2603451502
  H        14.8296949643        6.5758768562        4.7822615541
  C        15.4659420341        5.7468495516        6.6312590298
  H         7.2697927841        7.3979627721        3.3163112289
  H         7.9903531883        6.7662095015        1.8061417172
  C         6.2031928663        5.7132382902        2.5335967425
  N        11.6949301190       -0.7796482086        2.2695280443
  C        12.2002250223       -0.4957177892        0.0288920667
  C        12.0781232424        1.6481555656       -1.0378527170
  H        11.2667442584        3.3034574698        0.0539753469
  H        11.8330668821        2.4513976807       18.1719769353
  H        12.7781023064        3.8931890600       17.6967881150
  H        13.6404353385        2.6669947804       18.5275211731
  S         6.2317495308        6.5082592329       18.4280109252
  C         6.2186933946        9.2023896764       18.8980706167
  H        15.8152055325        6.5160217230        7.3912860218
  H        15.1917029727        4.8756174280        7.2565346496
  C        16.6445260191        5.3658055895        5.8743583598
  H         6.0111565978        5.0855751865        3.3916158043
  H         6.3698780806        4.9640404569        1.7181295280
  C         4.9435882697        6.5967389794        2.3130401130
  S        12.0206826354       -2.2906451868        1.7365543169
  N        12.3874548505       -1.8947063722        0.1589414726
  C        12.4230112056        0.2370719696       -1.1299636910
  H        12.0439046684        2.2326699100       -1.9028083176
  C         5.8413172221        7.1702461570       20.0049022283
  N         5.8750297436        8.5609101001       20.0628920784
  O         6.5421391747       10.3631961114       18.7062870952
  H        16.4412529866        4.6598140463        5.1072254386
  H        17.0294550587        6.3194842568        5.3627648807
  C        17.7328936278        4.8168344767        6.8716173923
  H         4.2189414936        5.9872334762        1.8388677087
  H         4.5201335171        6.8499020698        3.2610669582
  C         5.0530975257        7.8496692868        1.4315467795
  C        12.7160513516       -0.3582738637       -2.3930586497
  S         5.3001591561        6.3387973108       21.4861783133
  C         5.8689249106        9.2418015394       21.3033842023
  H        17.0762994714        4.3129500638        7.6173317485
  H        18.3768849047        4.0232781229        6.5198678047
  C        18.6491769303        5.8815454337        7.5568875834
  H         5.5406612326        7.6493947668        0.4431213229
  H         5.7722344665        8.5678235435        1.9156096981
  C         3.6595249289        8.3853506461        1.1525046103
  H        12.3198411015       -1.3237652744       -2.4197996394
  C        13.2597273218        0.1495177852       -3.5790415031
  H         5.1996215934        8.8190084843       22.0226243707
  H         5.4212682260       10.2670643343       21.1348538289
  C         7.2692216683        9.2561168713       21.8445433981
  H        18.8235570955        5.4919298864        8.5198198279
  H        18.2224203672        6.8887246512        7.6152931875
  C        19.9159340592        6.1071155703        6.6879958698
  H         3.3309071984        8.3460229856        0.0963130147
  H         2.9314799212        7.9695434998        1.8319368557
  C         3.6217793288        9.9384524666        1.4725945372
  S        13.7266778880        1.7274441382       -3.9572219557
  C        13.5195953725       -0.8220068487       -4.7378295552
  H         7.2806469477       10.0827278823       22.5586561960
  H         8.0484820898        9.5074306336       21.1256792564
  H         7.6819570089        8.4031985279       22.3199009719
  H        20.5000127686        5.2420702687        6.6410243219
  H        19.6936585150        6.4181977208        5.6855537942
  H        20.6647931582        6.7736592587        7.1016225179
  H         4.2249880479       10.1916702490        2.3435122850
  H         4.1082442527       10.5316067636        0.6348696499
  H         2.6132250020       10.2813486267        1.6823739855
  C        14.3718976179        1.1400808880       -5.5426259801
  N        14.2070271137       -0.2519639919       -5.7367730180
  O        13.2422243425       -2.0397251089       -4.6717230571
  S        15.1412686511        2.1224132974       -6.7598055187
  C        14.4844086011       -1.0664286092       -6.9844844380
  H        14.4360112009       -2.0812486711       -6.7872242321
  H        15.4533534892       -0.9016263614       -7.3996036079
  C        13.4797775997       -0.7102888648       -8.0202479299
  H        13.9215107168       -0.8162050093       -8.9717921576
  H        13.0999650698        0.3450800514       -7.8220975632
  H        12.6132077242       -1.4041952665       -8.0064636080
