352
 i =   119600, time =    59800.000, E =        99.5928778805
  H         9.5011079387        5.7305991957       31.8579125022
  C        10.4453852518        6.2396278859       31.9053524376
  H        10.1235403140        7.2784843881       31.8643821517
  C        11.4065555800        5.8683719535       30.8285865224
  C        10.8740605810        5.8899666338       33.3135859905
  C        10.6012657633        5.6276169190       29.5397366760
  H        12.1729501584        6.6238448653       30.7880057493
  H        11.9662275217        5.0385937977       31.1678613946
  H        11.1023869946        4.8102949692       33.3584955805
  H        11.7345203874        6.4629183952       33.7915457467
  H        10.0583104166        5.9941724286       34.0135662619
  C        11.3712823760        4.8119379453       28.5111319352
  H        10.4809298543        6.5641766670       29.0110877599
  H         9.5757421886        5.2754334897       29.7074280018
  C        11.0171271547        4.9843979628       27.0293923608
  H        12.3984137268        5.1821225954       28.5069112751
  H        11.4874727598        3.7924227170       28.7808143514
  C         9.5757846274        4.4783411986       26.6939827766
  H        11.7808010655        4.5070192152       26.4245186183
  H        11.0446605098        6.0906963226       26.7812338910
  C         8.4223218430        5.4358623068       26.3578092057
  H         9.6361255686        3.6957939859       25.9912062129
  H         9.3374598851        3.9467317110       27.6096673430
  C         7.1832358058        4.8890106985       25.7615033963
  H         8.1858664731        5.8466998837       27.3144255325
  H         8.8983013996        6.2674571611       25.8360413183
  C         6.8000283155        3.5453622510       26.3647808834
  C         7.4453470351        4.2149822679       24.3620799831
  C         6.0656053355        5.9061545271       25.7620456346
  C         6.7768053573        2.5042807821       25.5215481413
  C         6.3232282154        3.2194003209       27.6109378308
  C         7.2565610262        2.8300383452       24.2784651600
  C         7.8722107490        4.7730950347       23.2139966093
  H         6.4139253245        6.8466681284       25.3039547975
  H         5.8774463947        6.1494142395       26.8030721355
  C         4.7198531618        5.3577676151       25.1576329726
  S         6.2666198093        1.0347642090       26.3273329132
  C         6.0411882025        1.8819526748       27.7568763690
  H         6.1776712647        3.9076046269       28.3899207677
  C         7.4433133021        2.2056216329       23.0868788356
  H         8.1326725569        5.7942515230       23.2175902584
  C         8.1672832434        4.1186007879       22.0529232218
  H         4.7264516653        5.6112164281       24.0735140816
  H         4.7125459929        4.2367523269       25.0646010658
  C         3.4061869720        6.1555841502       25.5293512243
  C         5.6270392672        1.2527649907       29.0924532298
  C         8.0556425290        2.7477370528       21.9175172755
  H         7.1860234892        1.1394646863       22.9856466906
  C         8.6047863952        4.4932785856       20.7816105179
  H         2.5834020500        5.8734009537       24.8746198920
  H         3.5787878464        7.1783694359       25.2208606347
  C         2.9656072934        6.0252739103       26.9143710185
  C         5.6048280077       -0.1362020816       29.3833309008
  C         5.4800709538        2.0752757448       30.3107554308
  C         8.4587825436        2.0676912477       20.6652823683
  C         8.8034947130        3.3599144985       19.9383484462
  S         8.9205539701        5.9612589221       19.9714825388
  H         2.0167112624        6.5531052047       26.8404908230
  H         3.6664498887        6.4868761010       27.5458723948
  C         2.8014969982        4.5959303854       27.4875383960
  N         5.8972160975       -1.1401604492       28.4423728251
  C         5.2372256485       -0.6376320966       30.6135186665
  C         5.0981538056        1.5648171519       31.5974585707
  H         5.5773326121        3.1728387612       30.1813155344
  C         7.1842493704        1.2533353039       20.1258446312
  C         9.7451767977        1.2102514395       20.7769652806
  C         9.3390321953        3.6759192340       18.6833175943
  C         9.4060595537        5.0372612549       18.5540499199
  H         2.5247067724        3.8738424693       26.6969278470
  H         3.7455419885        4.2705793621       27.9343278213
  C         1.6023398714        4.5495747801       28.4689067181
  S         5.6999517920       -2.5732581163       29.1299385621
  N         5.1103388696       -1.9948470165       30.5310071567
  C         5.0631476072        0.1287767026       31.8380373266
  H         4.9841512683        2.2624207016       32.4668389963
  H         6.6862365946        0.8152588753       20.9653289204
  H         7.5043439458        0.4407347911       19.4848049797
  C         6.2675343426        2.0061739553       19.2234011335
  H         9.9625249247        0.9434265725       19.8081143935
  H         9.6327464772        0.2676559432       21.3441572445
  C        10.9284391461        2.1048939126       21.1714496032
  H         9.6008755667        2.8291500746       18.0492392395
  C         9.8189908449        5.7530973841       17.2880397030
  H         1.3278546749        3.4855971317       28.7235199302
  H         0.7618176823        5.0637751864       27.9583402403
  C         1.8389166914        5.4140291940       29.7492076573
  C         4.8388354175       -0.6740155677       33.0550957570
  H         6.7370571767        2.6260069793       18.5132276705
  H         5.7465666414        2.6602868187       19.8962318120
  C         5.2118340171        1.1281844360       18.6305504865
  H        10.6689025198        2.7455627772       22.0419104246
  H        11.2804631863        2.8259499114       20.4033709698
  C        12.1916928099        1.3376245022       21.5479954348
  C         9.7707988320        7.1689157284       17.0814963335
  C        10.1736333292        5.0407125484       15.9970847836
  H         2.2882315112        6.3291314242       29.4290344162
  H         0.9283226511        5.6959391009       30.2050548332
  C         2.7939642035        4.7587019033       30.7387689769
  H         5.0644617093       -1.7721388408       32.9510442735
  C         4.6353855032       -0.2232125833       34.2714229905
  H         4.4641145910        0.8817400345       19.4143891499
  H         5.5647211427        0.1891056582       18.1504631791
  C         4.5038219848        1.8838689179       17.5594852160
  H        12.0840258195        0.8259263717       22.5120510129
  H        12.3362995023        0.4962272829       20.8842850817
  C        13.4715306601        2.2596138405       21.5056648215
  N         9.4399825389        8.0645834659       18.0780769132
  C        10.0193457465        7.8461981179       15.8860062158
  C        10.4878573040        5.6937055561       14.8012259464
  H        10.2754208831        3.9186233138       16.1945799204
  H         2.9677665892        5.3131089310       31.6857791868
  H         2.2945634399        3.8269268698       31.0996036681
  H         3.7697037202        4.4986043363       30.3258367227
  S         4.4233079251        1.4187632447       34.7908052739
  C         4.4019494437       -1.2198494627       35.4009408620
  H         4.6514660362        2.9510248908       17.5704469837
  H         4.8722512358        1.4753177226       16.6372861695
  C         2.9830087493        1.5458277823       17.6937057584
  H        13.3444632085        3.0587593414       22.2488617376
  H        13.6195177781        2.5741657961       20.5179879672
  C        14.7184335666        1.4249585566       21.9446899395
  S         9.5407012813        9.5818709563       17.5745981197
  N         9.9886237394        9.2684268483       16.0705009348
  C        10.4395341786        7.1646184411       14.7763111018
  H        10.7465993166        5.0893629681       13.9898324223
  C         4.0107115368        0.7065027983       36.3724641447
  N         3.9546274225       -0.6091088532       36.5252057061
  O         4.4690571665       -2.4647902959       35.1614426410
  H         2.5559121792        2.2956107551       17.0214203781
  H         2.7186360000        1.8833302097       18.7173994174
  C         2.6523555076        0.1007733814       17.3677496122
  H        14.4435512700        0.7777300306       22.7487041639
  H        15.0316319716        0.8395255464       21.1037112309
  C        15.8048531992        2.4248815301       22.3827202823
  C        10.5220999527        7.9394231629       13.5871018331
  S         3.8445724051        1.5962160246       37.8298361372
  C         3.6368746679       -1.2712500739       37.7711500842
  H         2.2932715100        0.0413639652       16.4184113092
  H         3.5324222068       -0.5205440154       17.3999529771
  C         1.5539721831       -0.5916041418       18.2407942273
  H        15.3326332521        3.0195950748       23.2173419386
  H        15.9863847430        3.1164701718       21.5179622774
  C        17.0987360459        1.7510254671       22.8409324100
  H         9.8945345302        8.8167807794       13.5737554345
  C        10.9857306442        7.6504308050       12.3388501958
  H         2.7827900378       -0.7420261044       38.2540507400
  H         3.2062749963       -2.3198521432       37.6201519620
  C         4.9244505785       -1.4603252429       38.6700888353
  H         0.6240841126        0.0042799312       18.1735120983
  H         1.8166112057       -0.5562700513       19.2672875326
  C         1.3224536641       -2.0566247933       17.9429480545
  H        17.3785946157        0.8845199450       22.1774342853
  H        17.9014816722        2.4022729629       22.6178088182
  C        17.0813836953        1.4510921120       24.3216719041
  S        11.7051976688        6.0933201693       11.9081756449
  C        10.9957456847        8.6610490311       11.3228017928
  H         5.8442518650       -1.2110264918       38.0481496756
  H         4.8611959754       -0.7426184435       39.4612828441
  H         5.0709968556       -2.4319249425       39.1251144086
  H         0.6147572674       -2.5234089154       18.6183436738
  H         2.2621883541       -2.5814621122       18.1613984432
  H         0.8701408270       -2.2256003596       16.9166952126
  H        16.7780623994        0.4138532749       24.4908178023
  H        16.2932194672        1.9985565749       24.8568079499
  H        18.0598644269        1.6284890006       24.6493093310
  C        11.9649178839        6.8661896242       10.3411160234
  N        11.5419740761        8.1381834661       10.2939049562
  O        10.4966710147        9.7628050273       11.4487807446
  S        12.5342103292        5.9675865853        8.9043493450
  C        11.8228060093        8.9809809906        9.0949776331
  H        12.0424301448        9.9786513463        9.4318243977
  H        12.6544059709        8.5534350383        8.4283107966
  C        10.5891312006        9.0359037795        8.2849362744
  H         9.6540475300        9.3273155738        8.7699207894
  H        10.7353535418        9.8603667650        7.5430371148
  H        10.4058571737        8.1668736739        7.6832626376
  H         2.5662225679        2.9699397106       13.3384890769
  C         2.8784066490        1.9336292518       12.8871212005
  H         2.3518825162        1.1340717168       13.4403607880
  C         2.4883918445        1.9568217467       11.4100916279
  C         4.3315569220        1.6671454296       13.2454741359
  C         3.5426274801        2.4016628696       10.3342676225
  H         1.6864718382        2.7002252198       11.4378589103
  H         2.0862347959        1.0456172983       11.0980371540
  H         4.5669839441        0.6369963722       13.2013937879
  H         4.5147303451        1.9431501010       14.3217487901
  H         5.0217542757        2.2631997065       12.6686643091
  C         4.3070316933        1.2298317695        9.6077702410
  H         2.9804869893        2.9791241281        9.6461292562
  H         4.1828118785        3.0343831498       10.8538925981
  C         5.0595639706        1.7174370500        8.4062675761
  H         3.7352313148        0.3855463335        9.2916670842
  H         5.0511387806        0.6889820689       10.2157021631
  C         6.3401297592        2.6071623624        8.5749445425
  H         4.3449312045        2.2161971765        7.7520572598
  H         5.3198911373        0.8369562056        7.8225173756
  C         7.4864291651        1.7492816144        9.0741047437
  H         6.6540813329        3.0375573314        7.5887785268
  H         6.1329717575        3.4842384292        9.2306666326
  C         8.8584177980        2.5448749746        9.3862750289
  H         7.7701848407        1.0101407656        8.3289528633
  H         7.1687028298        1.2118803550        9.9935423203
  C         8.4763438804        3.8551415767       10.0281353843
  C         9.2657980541        3.2451197481        8.1204569910
  C         9.9511919981        1.7657050742       10.1824553182
  C         8.5505460179        4.9289605577        9.1750594359
  C         8.2091502892        4.2133325278       11.3094886430
  C         9.0398076509        4.5505905222        7.9272584095
  C         9.7190048441        2.6728092941        6.9457882086
  H         9.4214045882        1.1815871098       10.9427180584
  H        10.2504682977        0.9000235264        9.5461186940
  C        11.2022715646        2.5172203956       10.6465396406
  S         7.8897349635        6.4301934568        9.8425367689
  C         7.7755919622        5.5522431034       11.3763503863
  H         8.2363375793        3.4498081036       12.0884519651
  C         9.2936695658        5.2363173506        6.7906788087
  H         9.8269687546        1.5876341415        6.9904278081
  C         9.9971428448        3.3735689965        5.7908779301
  H        10.8924642858        3.4310292558       11.1223204740
  H        11.8592551777        2.9841635990        9.8579241024
  C        12.1516158548        1.8702326049       11.5628325362
  C         7.2869503279        6.3104295852       12.5971345723
  C         9.8191453766        4.7113193761        5.6369168093
  H         9.0940755931        6.3288150573        6.8252394019
  C        10.4999827250        3.0427417573        4.5632453953
  H        13.0259659809        2.4818956686       11.5290042961
  H        12.5179138170        0.9659166777       11.0381203896
  C        11.5886818809        1.5832247629       12.9903012945
  C         7.2670891655        7.7000262459       12.7867924963
  C         6.9678602928        5.4535668172       13.7986614717
  C        10.1601542913        5.4064952339        4.3839595748
  C        10.6172715198        4.1479136671        3.7393336094
  S        10.8435120358        1.5584052795        3.8126907994
  H        10.9130589898        2.4232689195       13.1717132427
  H        11.0402888600        0.6661410093       12.9658244580
  C        12.7952172070        1.5983909139       13.9680597208
  N         7.5470033824        8.6111541023       11.7462998659
  C         6.9853025445        8.3085875669       14.0022856004
  C         6.6621934661        6.0629677067       14.9744394685
  H         6.9878739122        4.3883579921       13.6439087682
  C        11.3553083515        6.4344867162        4.6383878092
  C         8.9998396493        5.9607771588        3.5612766728
  C        11.1087527731        3.8023970565        2.4273367448
  C        11.1827389791        2.4784280554        2.3140615033
  H        13.5818059365        2.3838752377       13.8262460342
  H        13.3414549628        0.6665582135       13.8813284671
  C        12.2801041339        1.5232108400       15.3682447919
  S         7.5429931535       10.0960603383       12.4008165351
  N         7.1445449732        9.7248497412       13.9337388993
  C         6.7407338824        7.5729063491       15.1795874146
  H         6.4346537664        5.5039642627       15.8451095664
  H        11.2001518001        7.1433627739        5.4999467897
  H        11.4802247024        7.0528782704        3.7363971974
  C        12.6780664014        5.6916532264        4.9340695287
  H         8.7552971622        6.8588724089        4.0855385688
  H         9.2456257491        6.3510841962        2.5776411393
  C         7.8291798083        5.0666533478        3.4422182881
  H        11.2360622823        4.5715216153        1.6495493768
  C        11.6739489754        1.7061460093        1.1331834328
  H        11.3268124263        2.0347610101       15.5467651307
  H        12.0465971954        0.4652078891       15.6067951980
  C        13.2619136296        1.9078918396       16.4925156472
  C         6.4802624736        8.2699981912       16.3914759892
  H        12.5478805986        4.8905175746        5.6789236618
  H        13.1629984768        5.3592767958        4.0299064635
  C        13.7380927070        6.5242865192        5.6167549384
  H         7.5577499613        4.7160983103        4.4706999554
  H         8.0295824564        4.1735866002        2.9004740499
  C         6.6116801396        5.7809987803        2.8457406064
  C        11.7136830041        0.2935338577        0.9205778521
  C        12.0876913701        2.5292603967        0.0004830158
  H        13.8723532836        2.7619880480       16.0785388628
  H        14.1552868388        1.2182726227       16.5945442644
  C        12.6687012333        2.2992978457       17.8648125465
  H         6.5615030865        9.3810041948       16.3150821031
  C         6.1795805961        7.8206048547       17.6634002382
  H        13.2162204606        7.1097947875        6.3970280242
  H        14.2477716938        7.1842058004        4.9380398692
  C        14.8157549466        5.5755132984        6.2522496601
  H         5.7028893110        5.2083563588        3.1614628880
  H         6.4043365085        6.6927277858        3.4869283921
  C         6.7721268560        6.1739462701        1.3653886797
  N        11.4024659023       -0.6452543939        1.9269011356
  C        11.9536586907       -0.3031610684       -0.2831605192
  C        12.5134319532        1.8691366479       -1.1866052214
  H        12.2466877050        3.5917010219        0.1425190726
  H        13.4380524161        2.6868488338       18.4123758930
  H        12.4462554360        1.3147071282       18.2315573250
  H        11.8479005239        2.9534675231       17.7495484366
  S         6.0716653593        6.1732782424       18.2298847454
  C         6.2541517987        8.7987468037       18.7817284490
  H        14.2901184379        4.9417644659        6.9111535291
  H        15.2492454069        5.0499576375        5.4434955216
  C        15.8342512660        6.1815819111        7.2540485903
  H         7.2307475383        5.3333435028        0.7682296992
  H         7.4230240196        7.0276989237        1.4052274353
  C         5.4525185487        6.4891755678        0.7837786454
  S        11.6733771329       -2.0926115488        1.3727210618
  N        11.8764667717       -1.6800262710       -0.2067402031
  C        12.3269670598        0.3974592555       -1.4352821544
  H        12.7855127984        2.3893519201       -2.0572376659
  C         5.9499059518        6.9146166874       19.8425895455
  N         5.9550947420        8.2402665803       19.9847792731
  O         6.4585492238        9.9898174490       18.5753290837
  H        16.2783727967        7.0412205551        6.6741589426
  H        15.4257422627        6.6886738547        8.1120224726
  C        16.8625191879        5.0494928563        7.5803613714
  H         5.6932035204        6.7123238449       -0.2358471907
  H         4.7808936558        5.6661185755        0.7236586529
  C         4.7543969898        7.6148526615        1.5265702008
  C        12.7069089429       -0.4082833429       -2.5976095415
  S         5.4030941549        6.0085680708       21.2272191100
  C         5.9353493605        9.0047998429       21.3009473962
  H        16.5607580328        4.3918306840        8.4297642570
  H        17.1718657059        4.4778860728        6.7495100084
  C        18.1440714482        5.7345723904        8.0407823384
  H         5.4230020477        8.2137777035        2.0412445626
  H         4.0126477161        7.1612079019        2.1734557062
  C         4.2061792871        8.6321916636        0.5175993770
  H        12.2987687673       -1.4331474574       -2.6038669970
  C        13.2972725705       -0.0647317556       -3.8136760095
  H         5.1828499247        8.5340374288       21.9320036977
  H         5.5364651732       10.0083725852       21.1752373235
  C         7.2473308777        8.9183432054       21.9538769175
  H        18.5283299196        5.3665260770        9.0114605292
  H        17.9187532817        6.7852081978        8.3099800025
  C        19.1432370581        5.6868026078        6.9292863654
  H         4.9377864630        9.2334325265        0.1406031885
  H         3.8363470251        7.9917970542       -0.2947509683
  C         3.0262801777        9.4870994223        1.1111418838
  S        13.8413951805        1.4855434612       -4.2683201915
  C        13.5282952101       -1.0892196417       -4.8340149979
  H         7.9790379842        8.3206172322       21.3201074122
  H         7.0494028167        8.1660455776       22.7910843173
  H         7.6129386420        9.8277764540       22.3398525909
  H        18.7416193159        6.1417057960        5.9805389924
  H        20.0908984119        6.1947500915        7.1362712515
  H        19.3475965925        4.6360493056        6.7920460597
  H         3.3337018729       10.2619582474        1.7578152368
  H         2.5917876043        9.9785871790        0.1931752098
  H         2.2421264391        8.8061102589        1.5130006211
  C        14.4073443965        0.7606690735       -5.8174052610
  N        14.1293801440       -0.5400519494       -5.9331259927
  O        13.0375517631       -2.2224048338       -4.7866761505
  S        15.2876167067        1.6428627426       -7.1738758180
  C        14.3086815869       -1.2386808661       -7.1816135538
  H        14.2656297404       -2.3183504224       -7.0605719977
  H        15.2319274071       -0.8765076216       -7.6652133013
  C        13.1090968493       -0.9863381160       -8.0328361048
  H        13.3047338426       -0.0312541981       -8.5722641233
  H        12.1263365360       -0.9320502589       -7.5741960223
  H        13.0788031777       -1.8149358348       -8.7594886595
