352
 i =   124200, time =    62100.000, E =        98.8031981498
  H         8.9603611974        5.5945737662       32.3428692911
  C         9.8872478515        6.2130044759       32.2652314314
  H         9.5204242428        7.1488347279       32.8089601502
  C        10.5028119845        6.3038782305       30.8746882397
  C        10.8081149453        5.3778403881       33.1638780647
  C        10.3288483829        4.9930668272       30.1555762507
  H         9.9935640358        7.1415997674       30.3567110255
  H        11.5650489882        6.5137880657       30.9464923424
  H        11.3596158963        6.1323016785       33.7299655244
  H        10.3621382656        4.7610646880       33.9657262522
  H        11.5340273950        4.7591606570       32.5974830610
  C        11.0806067984        4.8448389424       28.7957841025
  H         9.2860801305        4.8497010593       30.0318422805
  H        10.4706624401        4.0686814705       30.6749513991
  C        10.3522093386        5.7093894457       27.6889848889
  H        12.2001251056        5.0226786182       28.9113330606
  H        11.0781685279        3.7871472283       28.4907290969
  C         9.2376709200        5.0669698321       26.9303195288
  H        11.0750245130        6.0374164671       26.9214805193
  H         9.9085428391        6.5976325602       28.1270228759
  C         8.3160863561        6.0551444675       26.3155118689
  H         9.6744964176        4.4302570815       26.1582344618
  H         8.8060599167        4.3248170896       27.5841218133
  C         7.0489373335        5.4797906512       25.5938398181
  H         8.0422217004        6.8024171836       26.9646345241
  H         8.8522692372        6.6545255595       25.5727436613
  C         6.6376527230        4.1789097404       26.3316854600
  C         7.4347677594        4.7632953118       24.3205567074
  C         5.8602763479        6.4369309011       25.3589630560
  C         6.8376511613        3.0640484820       25.5534304373
  C         6.0509655909        3.7987450448       27.5217317199
  C         7.3006935650        3.4145323719       24.3068420071
  C         7.8387106156        5.3257408873       23.1107057345
  H         6.2150123938        7.2469285728       24.6250934873
  H         5.5708126085        6.8712647631       26.3355243411
  C         4.6573340153        5.7680850555       24.8180536097
  S         6.5189298327        1.5713214098       26.3093248011
  C         6.1475468511        2.4296671248       27.7567330212
  H         5.8739999702        4.6369394043       28.2372645746
  C         7.7017752384        2.7187025606       23.1852090485
  H         7.9037698954        6.4375199897       23.1218415362
  C         8.2670157888        4.6431090192       22.0152614874
  H         4.6629169744        5.3761530584       23.7883078386
  H         4.2795099738        4.9763459356       25.4728615059
  C         3.3779161971        6.6173396673       24.8530470209
  C         5.9355636679        1.7491614224       29.0808597860
  C         8.2387170391        3.2732119619       22.0244436832
  H         7.6672766205        1.6073348126       23.3282580048
  C         8.7864916575        4.9767755640       20.7885335510
  H         2.6717226209        6.3696908769       24.1211104714
  H         3.7425674974        7.6219110208       24.5370782868
  C         2.7818790913        6.7545423423       26.1736473266
  C         5.9527428568        0.3551028029       29.2862788487
  C         5.5922809940        2.5855241689       30.2134601774
  C         8.6297817923        2.5253587863       20.8080920338
  C         8.9956623254        3.8334396215       20.0347351347
  S         9.0340689399        6.3868230080       19.8747956084
  H         2.1182182392        7.6492933735       26.0208106256
  H         3.4984437477        7.1110341312       26.8687951143
  C         2.0637752946        5.6161777527       26.6982543763
  N         6.1741569834       -0.5281828297       28.2405577910
  C         5.6089181156       -0.2247854104       30.4548784021
  C         5.3139658082        1.9974596603       31.3818180097
  H         5.8637991531        3.6354709928       30.1857792130
  C         7.3217071682        1.8590651128       20.2090163689
  C         9.8005120325        1.4990335188       20.9237992444
  C         9.5177160452        4.0848374383       18.7851955676
  C         9.4498874713        5.4429745241       18.5381851284
  H         1.5764547376        5.1921932439       25.8374884483
  H         2.6938546386        4.8054560119       27.0698180002
  C         0.9849856619        5.8978993529       27.7146866042
  S         6.1636148074       -2.0397317948       28.8994231634
  N         5.6938438889       -1.6049744693       30.3911027119
  C         5.2613741487        0.5116121454       31.5898114308
  H         5.1630474985        2.6540830434       32.2124238154
  H         6.9476105343        1.1853105610       20.9654458195
  H         7.5953828849        1.2223894984       19.3936390068
  C         6.2698027249        2.8372136082       19.7611280186
  H         9.8468203156        0.8309267249       20.0449801984
  H         9.5323470915        0.7808955293       21.7095933382
  C        11.1021754358        2.2163135280       21.2927244861
  H         9.8849669506        3.3415053144       18.1306870737
  C         9.7759960292        6.1244233712       17.2706251462
  H         0.3120241500        5.0311771289       27.7589972819
  H         0.4494833427        6.7683451534       27.3541153996
  C         1.5024159204        6.0821538300       29.1853261141
  C         4.8022136645       -0.1830415281       32.7183491176
  H         6.5663379746        3.5995264616       19.0998930516
  H         5.9936212406        3.5211338264       20.6094994781
  C         5.0358808892        2.0323342955       19.4034268624
  H        10.9851993557        2.8231294860       22.1655591814
  H        11.4338411923        2.8419120303       20.4707671210
  C        12.2444019045        1.3137107247       21.5513251694
  C        10.0001911162        7.5158729334       17.0772853522
  C        10.0621212807        5.3703700895       16.0164064511
  H         1.3598945068        7.1489624895       29.3950160345
  H         0.8761425658        5.4209101891       29.8828811795
  C         2.9959120465        5.8674701438       29.4540206536
  H         4.6549756378       -1.2672753773       32.4561707440
  C         4.5376101520        0.1868150989       33.9932374592
  H         4.3237067363        2.0501409859       20.1416013895
  H         5.4476131643        1.0196249781       19.3189351441
  C         4.3755846035        2.5170083041       18.0858545519
  H        11.9453866517        0.4862372906       22.1857075562
  H        12.5641378496        0.9790025604       20.6005567136
  C        13.3130328030        2.1229625093       22.2064652666
  N         9.6679973584        8.5187984927       18.0075974277
  C        10.4201866204        8.0823582687       15.8764453003
  C        10.4853745016        5.9517694312       14.8337272571
  H         9.9657668300        4.3274966601       16.1119568569
  H         3.1701242340        6.0427827203       30.4549926800
  H         3.3245882429        4.8283434806       29.2293586665
  H         3.6171180636        6.4660346691       28.8391930137
  S         4.4161404197        1.7719924826       34.5944633508
  C         4.5020461026       -0.9455892886       35.0377916180
  H         4.1191718612        3.5588431954       18.2806954217
  H         5.0160445547        2.5662877471       17.2200297262
  C         3.0772763420        1.8156916577       17.7455442493
  H        12.9343272414        2.4175913809       23.1567677240
  H        13.4307078687        3.0147049307       21.5915635332
  C        14.6341199153        1.4395250311       22.3764315928
  S        10.0018154241        9.9334960403       17.4162684926
  N        10.5653061287        9.4752929871       15.9959011228
  C        10.7264819017        7.3930516236       14.6915276836
  H        10.6656578522        5.3608199837       13.9634270175
  C         4.1763738607        1.0456572401       36.1993362488
  N         4.2041573421       -0.3491488049       36.2022361781
  O         4.6435683222       -2.1304731482       34.7709551079
  H         2.6507902269        2.5448256845       17.0174157076
  H         2.3897024734        1.7136149778       18.5457073345
  C         3.1255403891        0.5026547881       16.9948016448
  H        14.7264441520        0.6802538486       23.1268879825
  H        14.8357569776        0.8911926908       21.4412971528
  C        15.6063499551        2.6007700926       22.5713234928
  C        11.1808702529        8.1456894392       13.4957179548
  S         3.6578218114        1.8444793702       37.6928027849
  C         4.2116461849       -1.2000250361       37.4333578529
  H         2.4544135239        0.5384831926       16.1870629895
  H         4.0696499113        0.4089802722       16.4331064936
  C         2.9078995680       -0.7688111497       17.8646504746
  H        15.3073478389        3.1858681415       23.4097396334
  H        15.5486469720        3.3212457554       21.8073188604
  C        17.0416092554        2.1920654305       22.7195566337
  H        10.9740908683        9.1673516176       13.5239859102
  C        11.5364397418        7.7261426647       12.2722965778
  H         3.5616884276       -0.8288153030       38.2119301248
  H         3.7391924042       -2.1654586527       37.1897393887
  C         5.6197894645       -1.4623548962       37.8414269257
  H         2.6286990565       -0.5241067455       18.8536823886
  H         3.7830484197       -1.3801375442       17.9906228460
  C         1.7224798716       -1.6773334978       17.4841939161
  H        17.3854875887        1.3114553967       22.1072892022
  H        17.5732083427        2.9915360681       22.2625171113
  C        17.4191473791        2.0482257854       24.1606872629
  S        11.9508514053        6.1158441087       11.8604339218
  C        11.7342923797        8.7660745537       11.1739587914
  H         6.2247649623       -0.6136550035       37.5625991460
  H         5.6833593442       -1.6792046984       38.8905158729
  H         5.9805170471       -2.3335059340       37.3405467266
  H         2.0662729891       -2.4445741248       16.7969203274
  H         0.8853955297       -1.2375520226       16.8872963365
  H         1.3501503824       -2.1684222300       18.4002688449
  H        16.9081113739        1.1899521150       24.5829046456
  H        17.0916262935        2.9040225913       24.7187404073
  H        18.4456747270        1.9365393008       24.2488499240
  C        12.3725944877        6.7635406589       10.2959661834
  N        12.3061172452        8.1148049057       10.1582068922
  O        11.5550903433        9.9656095713       11.2921188550
  S        13.3815264336        5.8919378349        9.1164046275
  C        12.6016251755        8.8512203474        8.9412346288
  H        12.3733382029        9.8679748792        9.0237552853
  H        13.6779196059        8.6867956368        8.5034368269
  C        11.5606927956        8.4264563414        7.8437800548
  H        11.7288174183        8.9828434629        6.9667058254
  H        11.6428094390        7.3448876522        7.5538339438
  H        10.5878603974        8.6290256750        8.3295056249
  H         2.3736365107        3.4802395702       13.0823250240
  C         3.0155309333        2.5712476966       12.8089958072
  H         2.6393571213        1.8002100367       13.5170327705
  C         2.5808545777        2.1334943840       11.3677309789
  C         4.5471397936        2.7494959976       13.0100773140
  C         3.4931954264        2.3571339330       10.1525693894
  H         1.6394566815        2.6964251772       11.3012108620
  H         2.2673771003        1.0067729859       11.3812973865
  H         4.9412930355        3.2965246535       13.9055089096
  H         5.0143886230        3.3519052875       12.2337432280
  H         5.0722274504        1.8137208689       12.8883340285
  C         4.4659675287        1.2315369163        9.7660505201
  H         2.8990272308        2.4984134419        9.2743993008
  H         3.9213670648        3.3443679514       10.1790352342
  C         5.2774654118        1.4875630388        8.5799932114
  H         3.8113696087        0.3379418887        9.6777540280
  H         5.1027590260        1.0725703706       10.6236510558
  C         6.4794155887        2.4463467147        8.8213229949
  H         4.6281385045        1.8511068117        7.8137225642
  H         5.7421323881        0.5227405672        8.2254137421
  C         7.7215445513        1.8270666031        9.4670628832
  H         6.7636714146        2.9040734378        7.8301593465
  H         6.1547820272        3.1945628397        9.4857352280
  C         8.9924087570        2.7817765886        9.6251297280
  H         7.9915052735        0.9575835506        8.8654439943
  H         7.4200013461        1.3526494749       10.3453322414
  C         8.6232527242        4.1038858726       10.2942783001
  C         9.4049677047        3.4769029961        8.2939433488
  C        10.2021989237        2.0495454605       10.2004609252
  C         8.8672216218        5.2052066724        9.4813007824
  C         8.1709667645        4.5148636783       11.5443621443
  C         9.3248714976        4.8405453759        8.1878938131
  C         9.8670014063        2.8417465823        7.1714703183
  H         9.8159527638        1.5521487367       11.0903675749
  H        10.3742815859        1.1761821711        9.5064585151
  C        11.4746435136        2.8435249381       10.5293481266
  S         8.5102749631        6.7169881603       10.1595045385
  C         8.1714649706        5.8694914868       11.6291093571
  H         8.0305045442        3.8297810783       12.3598097154
  C         9.6560203561        5.4576517695        6.9807962687
  H         9.9685833302        1.7815444085        7.2126051873
  C        10.2266515556        3.4660815629        6.0294682946
  H        11.0759255994        3.8219299371       10.8030329399
  H        12.0769985006        2.9897520550        9.6474126516
  C        12.3669160259        2.2431645665       11.6226779491
  C         7.8379151969        6.6256788125       12.9100841603
  C        10.1630003822        4.8215488552        5.8624891511
  H         9.5962278077        6.5681238457        7.0464424990
  C        10.6443109593        3.0473945735        4.7690064541
  H        13.1825206679        3.0162586275       11.7118531819
  H        12.8443937595        1.4017142237       11.2603722964
  C        11.7422656564        2.0549684541       13.0264501173
  C         7.9540049987        8.0496565449       13.1158213336
  C         7.2448879064        5.7922231192       13.9972501167
  C        10.5469282387        5.4503644917        4.5586753773
  C        10.8999848498        4.1271286751        3.9324015268
  S        11.0192189816        1.4982255391        4.1198722760
  H        10.9901049159        2.8435301526       13.3735615170
  H        11.0313838461        1.1710750068       13.0120912797
  C        12.7526826378        1.9593180455       14.1805140395
  N         8.2142489318        9.0102903212       12.1777620801
  C         7.5941422949        8.5663111241       14.3218576059
  C         6.9834317416        6.3571050946       15.2678930878
  H         6.7983223661        4.8514865966       13.8014819260
  C        11.9102036802        6.3197326994        4.5849760099
  C         9.4128971187        6.1468373066        3.7512854828
  C        11.3947549536        3.6576468815        2.7000535941
  C        11.4224269110        2.2815838002        2.6232405739
  H        13.3283246283        2.8722297068       14.0816441716
  H        13.3840151555        1.1010483753       13.9845715444
  C        12.2232995400        1.9435700233       15.5650239573
  S         8.2604766871       10.4769177074       12.8916243367
  N         7.7211867100        9.9454935718       14.3185700068
  C         7.1169859457        7.8254325215       15.4349672439
  H         6.6288401328        5.6851374135       16.0767953637
  H        11.7251652638        7.2470255241        5.1366131961
  H        12.1835978547        6.6771895091        3.6365460337
  C        13.2157303725        5.5544462568        5.0829438695
  H         8.9776477210        6.9315900559        4.3780504279
  H         9.8767107078        6.7539706531        2.9994125646
  C         8.1619376347        5.3161258956        3.3710527323
  H        11.6293964881        4.3096015227        1.8568474063
  C        11.8093295667        1.4910521080        1.2990865984
  H        11.6569731774        2.8783900486       15.6965154203
  H        11.5278160212        1.1262639377       15.7706159375
  C        13.3128881903        2.1378843308       16.6118725181
  C         6.8703158015        8.5519248553       16.6447808484
  H        13.0257476035        5.0936253279        6.0247418569
  H        13.3772634956        4.7206116245        4.3695031389
  C        14.5746157441        6.3514467705        5.2143165408
  H         7.8159562393        4.9588646653        4.3298256039
  H         8.4660318856        4.4487480718        2.7406565064
  C         7.1543140195        6.2045083694        2.7326291639
  C        11.8082912209        0.0534772258        1.1223101943
  C        12.1485475874        2.2170931543        0.0686726185
  H        13.9827640696        3.0100412617       16.2541888462
  H        14.0151163791        1.2653598663       16.5149694969
  C        12.8121691454        2.3777405347       17.9563528177
  H         7.2385633051        9.5076372396       16.6820672087
  C         6.4086949882        8.1131978706       17.8852865114
  H        14.4896653458        7.0326693616        6.0617572047
  H        14.8566875261        6.9006875365        4.3606212110
  C        15.7399513190        5.3311111862        5.4008190893
  H         6.8701210742        6.7680178290        3.5881938239
  H         7.4360485544        6.9921819925        1.9655643431
  C         6.0325074385        5.3185601840        2.2995081465
  N        11.4664081348       -0.9100555437        2.1326052913
  C        12.1129421794       -0.5649126803       -0.0459891484
  C        12.4152765504        1.5940331197       -1.1404115072
  H        12.1131690840        3.2776836050        0.1694250608
  H        12.0010037061        1.7530656892       18.1569880369
  H        12.4271606609        3.4207645126       17.9249008534
  H        13.5309346567        2.2607548128       18.7230217810
  S         5.7526962264        6.5576919389       18.3901375635
  C         6.3888669502        9.1292438194       18.9461950178
  H        15.4013541588        4.5064439262        6.0568670092
  H        16.0079810646        4.8948494221        4.4083553931
  C        16.8709395465        6.0998154857        6.0247269686
  H         5.6574431270        4.7406861280        3.1236363342
  H         6.5206705485        4.5604561482        1.7420765485
  C         4.9746747184        5.9995555965        1.3936442795
  S        11.6861217482       -2.4074783360        1.5306740718
  N        12.0842667906       -1.9254981566        0.0356912029
  C        12.3898728908        0.1164148516       -1.2493050474
  H        12.5592758520        2.1759207899       -2.0174722000
  C         5.6771416340        7.3111406819       19.9732977614
  N         5.9074791738        8.6243866738       20.0841354344
  O         6.7002700532       10.2939718635       18.7174864092
  H        17.4005026550        6.7128508776        5.3112734947
  H        16.5682477431        6.8582671554        6.7137928766
  C        17.7831897085        5.1475265364        6.8696408687
  H         5.3161477939        6.3108958202        0.4035407352
  H         4.3139007325        5.1494225551        1.1639552143
  C         4.1727555490        7.1730542461        2.0406058546
  C        12.6513529362       -0.6134137643       -2.4429085778
  S         5.1419453926        6.4589271132       21.4663090154
  C         5.8016660056        9.4062782907       21.2961333682
  H        17.3147031036        4.9481122842        7.8497841530
  H        17.8214948345        4.2456955150        6.3007465019
  C        19.1792902624        5.7814094754        7.2527058176
  H         4.5616993264        7.3532900136        3.0011437674
  H         3.1271726260        7.0861999041        2.2817460862
  C         4.3914755467        8.4860702822        1.3549120759
  H        12.4040031600       -1.6466591536       -2.4760828723
  C        13.2091298470       -0.2346668336       -3.6421336532
  H         5.1345559488        8.9318077821       21.9814859045
  H         5.3879521151       10.3193953183       21.0093758507
  C         7.1342979294        9.7959648255       21.8905629683
  H        19.7269151665        5.2802117852        8.0287048153
  H        19.0965022216        6.7865712940        7.5696659617
  C        20.0526574969        5.6643396352        6.0170133828
  H         5.4109924085        8.5830550656        1.1119344407
  H         3.9769966862        8.3930257922        0.3719008295
  C         3.6736010390        9.7257482358        2.0130145429
  S        13.8500829011        1.2546425222       -4.1451991702
  C        13.2046955384       -1.2887423175       -4.6520979996
  H         7.9130836959       10.2023593955       21.2217915253
  H         7.4860650492        8.9742451173       22.4698073554
  H         6.8727581503       10.6435617936       22.4476254980
  H        19.6124019683        5.9715976198        5.0919639573
  H        21.0135329002        6.2271216641        5.9728028160
  H        20.2685985206        4.6161552718        5.8833827259
  H         3.8212710717        9.7185677288        3.1312035345
  H         4.0320135607       10.6387166293        1.6778927030
  H         2.6297293863        9.7461792641        1.7948881545
  C        14.0137630125        0.4964080397       -5.6832778039
  N        13.7628277768       -0.8065852299       -5.7619730235
  O        12.7481158871       -2.4020575865       -4.4624638908
  S        14.5497513366        1.4088157362       -7.1203010445
  C        14.0240877421       -1.6928434141       -6.8834051181
  H        13.9792058751       -2.7133634769       -6.5972069301
  H        15.0178735769       -1.5384190618       -7.2220800884
  C        13.0111449623       -1.5156962424       -8.0470569654
  H        12.9806370306       -2.4776737101       -8.5111038425
  H        13.2847710449       -0.7575290744       -8.7818709842
  H        12.0338144724       -1.2457082512       -7.6540894082
