352
 i =   134000, time =    67000.000, E =        99.2962878256
  H         9.8435603395        5.8974900201       31.8198161546
  C        10.7729984816        6.2571088720       32.0679669497
  H        10.6192119481        7.3325670821       32.1305644332
  C        11.6507001125        6.0546433741       30.8448627201
  C        11.2879618588        5.7184055820       33.3752642991
  C        10.9569960257        5.2481609365       29.7160389223
  H        12.1064669337        6.9882509423       30.5138489878
  H        12.4218960969        5.4776153327       31.2621027975
  H        10.4286108450        5.5680519174       34.0402691635
  H        11.8115304286        4.8033790516       33.1739942099
  H        12.0154344078        6.3362243152       33.8157330976
  C        11.6063616758        5.1753925971       28.3054799859
  H         9.9968583228        5.7439377516       29.4972369174
  H        10.6177846769        4.2712549359       30.1610571901
  C        10.8612325061        5.9129588832       27.2453756047
  H        12.6486532750        5.5532606799       28.2672940737
  H        11.5998346912        4.1811255015       27.9660527212
  C         9.6507575820        5.0746338385       26.8611089397
  H        11.4840812455        6.1065110449       26.3443812010
  H        10.6923308166        6.9074716387       27.6375363366
  C         8.6275639435        5.9425206743       26.1572978286
  H        10.0567115973        4.3966825043       26.1237995157
  H         9.1253056511        4.5088190988       27.5026372354
  C         7.4395092621        5.2614244218       25.3200624368
  H         8.2478360008        6.5410006382       26.9063897294
  H         9.1244083451        6.5150071416       25.3634717578
  C         7.0282949250        3.9472009217       26.0296551023
  C         7.9818289123        4.5130874182       24.1768769280
  C         6.1319646678        6.1605000658       25.0950257838
  C         7.3974877814        2.8197056128       25.3038544267
  C         6.4282225329        3.5620142497       27.2944863797
  C         7.9623455075        3.1771200145       24.0821344032
  C         8.4566652344        5.0823434162       22.9797101945
  H         6.3991175959        6.8035953938       24.1741008661
  H         6.1083115155        6.8050454255       25.9168507968
  C         4.7767916188        5.3953641013       24.7776290969
  S         7.0299536570        1.2921158322       26.1209663746
  C         6.3816407210        2.2403042357       27.4376188569
  H         5.9965282443        4.3302514322       27.8727485427
  C         8.2681489511        2.5083353054       22.9081981186
  H         8.4699791515        6.1347378750       23.0212161690
  C         8.8307211873        4.4078015679       21.8358431396
  H         4.6667544056        5.0894953987       23.7172488228
  H         4.5710254154        4.5704195724       25.4136825236
  C         3.4876159062        6.1724946050       24.9125182589
  C         6.0834444019        1.5447458791       28.7083325024
  C         8.7634618143        3.0973658412       21.7465568866
  H         8.1545233770        1.4662575964       22.7712004032
  C         9.1987200597        4.8378500338       20.5153722639
  H         2.5977894956        5.5653982911       24.5689692033
  H         3.4639163068        7.1001128430       24.3613437731
  C         3.1825917768        6.5623084562       26.3333774672
  C         6.1803512922        0.1373237742       28.9507072841
  C         5.6181248522        2.3532722591       29.8637257666
  C         9.0298764274        2.3778731853       20.4547408886
  C         9.2333864500        3.7155914093       19.7053768088
  S         9.4743566028        6.3335467134       19.7324109334
  H         2.4016679651        7.2635291734       26.3965309210
  H         4.0578263788        7.0565132808       26.7633321268
  C         2.7521778579        5.4336141206       27.2254331695
  N         6.4073655314       -0.8586912261       27.9909670266
  C         6.0171810415       -0.3811819408       30.2276096394
  C         5.4734439403        1.8013876411       31.1087724042
  H         5.5320029040        3.4188817757       29.7203630637
  C         7.9886505437        1.4689501208       19.7522541590
  C        10.3956387320        1.6887642974       20.5866922411
  C         9.5105297837        4.0811281801       18.3111897711
  C         9.6582128916        5.4308790983       18.2539717325
  H         2.4206874608        4.6816244764       26.5685253966
  H         3.6109042900        4.9001270712       27.5521593722
  C         1.7878524550        5.6820616630       28.3926725782
  S         6.4133815435       -2.2940025393       28.6993051768
  N         6.3296309184       -1.8194237160       30.2432731778
  C         5.7028045112        0.3724937105       31.3423759597
  H         5.3230594593        2.4756873979       31.8968280247
  H         7.5801112647        0.7847673218       20.5160506033
  H         8.4834922824        0.9701016571       18.9153416723
  C         6.8448341067        2.3363892742       19.1972920765
  H        10.6172547724        1.1878964544       19.6752787755
  H        10.3027272102        0.8386763762       21.2727365927
  C        11.5620783886        2.5641343381       21.0217892874
  H         9.6534957241        3.2989371782       17.5936084721
  C         9.8735868306        6.1710821887       16.9574144093
  H         1.1541312323        4.8082395254       28.6237366847
  H         0.9764782318        6.3819078570       27.9842695355
  C         2.4757989934        6.1988681591       29.6607121394
  C         5.4732575765       -0.4032863183       32.5621402651
  H         7.1856818176        2.8284086672       18.2607570894
  H         6.5950457470        3.1367429265       19.9037973795
  C         5.6475455751        1.4184114597       18.9226375327
  H        11.3808130313        3.0480808274       21.9346548667
  H        11.7885996822        3.3751291627       20.3039020759
  C        12.9176436992        1.7736893494       21.0790524229
  C         9.9800183623        7.5556716116       16.7828807088
  C        10.1351793808        5.2826452027       15.7892637256
  H         3.2448607437        6.9579859553       29.4169537439
  H         1.6729414223        6.7741358028       30.2197939924
  C         3.1131611255        4.9972719360       30.3495050284
  H         5.6835060004       -1.4196579795       32.4655963541
  C         5.1131528592        0.0425661660       33.8182356656
  H         5.3775168675        0.9900596202       19.8869064593
  H         5.9121481426        0.6238413283       18.2435658846
  C         4.4381895436        2.1435175965       18.3537044218
  H        13.0033993839        1.0387806716       21.8614493266
  H        12.9324464522        1.0737264150       20.2191413230
  C        14.1724474062        2.5974309828       21.0237277124
  N         9.6546214637        8.4629321110       17.7558788993
  C        10.1739328578        8.1280451270       15.5389852779
  C        10.2185375950        5.8603307452       14.5192839295
  H        10.1898654841        4.2626543691       15.8402440382
  H         3.8671252821        5.2448219212       31.1021020646
  H         2.4617010265        4.3772499213       30.9526959760
  H         3.5310524202        4.3032647571       29.6322579567
  S         4.7389959219        1.6748529656       34.3204984066
  C         5.1382748589       -1.0402317276       34.9000606873
  H         4.2728316456        2.9325157052       19.0478133450
  H         4.5894216030        2.6926262570       17.4288064789
  C         3.1710009958        1.3533590644       18.5547060111
  H        14.2227217445        3.5731825560       21.4726912886
  H        14.3049309045        2.9155980372       20.0009985522
  C        15.3671264783        1.8562358945       21.4550319441
  S         9.7823353765        9.9224866289       17.0233011872
  N        10.1075663102        9.4914504020       15.5086534238
  C        10.4570105528        7.3295986981       14.4139171768
  H        10.1376431957        5.2401265808       13.5872043151
  C         4.5443671437        0.8911267458       35.9388627143
  N         4.8473834884       -0.4272252796       36.0709008823
  O         5.4575673315       -2.1942565181       34.7414040318
  H         2.3048471586        1.9876638610       18.5822450259
  H         3.1676109439        0.8472492119       19.5620011178
  C         2.7627634165        0.4015903918       17.4433057232
  H        15.1275357930        1.2278905578       22.2894653981
  H        15.5840156898        1.1814966009       20.6009366776
  C        16.6358887256        2.6565394161       21.7062677025
  C        10.7792976226        8.0226592780       13.1985142292
  S         4.0321357881        1.7443768701       37.4304982346
  C         4.7294082623       -1.3104821758       37.2230563254
  H         2.0463416315        0.8356440009       16.7212324959
  H         3.6306766138        0.2270122345       16.8564562646
  C         2.2191916915       -0.8789317359       17.9911935880
  H        16.3426900194        3.6653119369       22.1889270943
  H        17.1427817673        2.9353194263       20.8238158981
  C        17.6531478987        1.9850079162       22.6413993178
  H        10.3694961468        8.9978137480       13.1557212037
  C        11.2982601720        7.6550299257       11.9565365641
  H         4.1883806366       -0.8355273998       38.0678952575
  H         4.1172087380       -2.1606835665       36.8734849244
  C         6.1061455874       -1.8124464068       37.7844963041
  H         1.6944201064       -0.6053458481       18.8511247269
  H         2.9732762436       -1.4805214033       18.3372136679
  C         1.2610390675       -1.5253984234       17.0334937834
  H        17.8524380963        0.9771282695       22.3278246845
  H        18.6368760746        2.4308035132       22.5066639959
  C        17.2449486168        1.9813313541       24.1189452623
  S        11.7546410317        6.0849282253       11.4909110745
  C        11.4218370776        8.7097876794       10.9247306173
  H         6.2159912658       -2.8766439347       37.9519470876
  H         6.8966316128       -1.4590518669       37.1235324858
  H         6.3359656312       -1.3866076332       38.7663651175
  H         0.2309653879       -1.7408317342       17.4906155897
  H         1.6397724549       -2.4729830483       16.6800985520
  H         1.0738500492       -0.9901000726       16.0713339619
  H        16.6954431161        1.0915204349       24.4580647550
  H        16.6049973608        2.8379995254       24.4271381926
  H        18.1827116200        2.0740794535       24.6732097326
  C        12.2160569291        6.8494556072        9.9648656470
  N        12.0478980069        8.1761362282        9.8661235966
  O        11.0721899854        9.8737593677       10.9748485560
  S        12.8196192508        5.9696396336        8.5998556387
  C        12.4843795156        8.9609717252        8.7398662699
  H        12.5871798296        9.9642437729        9.2137549885
  H        13.3979816752        8.5609597021        8.3073825705
  C        11.3461962413        9.0627154607        7.7147789508
  H        10.3961263676        9.3773399447        8.1855327927
  H        11.7065388190        9.7435296080        6.9545789982
  H        11.2290734187        8.0630320268        7.2568646604
  H         2.3285750778        2.2716423099       13.6929845445
  C         3.0750847143        2.1327186044       12.9865313046
  H         3.3503622246        1.0685040398       12.9066708472
  C         2.5773229787        2.4264328787       11.5453644258
  C         4.3223356047        2.9242542862       13.5030226103
  C         3.5391265532        2.7807859159       10.4783927140
  H         1.8299932480        3.2295453339       11.7075643107
  H         2.0086178635        1.6524347357       11.0466172472
  H         4.6974976299        3.6500948689       12.7997440884
  H         5.1732379137        2.2808539691       13.6105158206
  H         4.1670305464        3.4593815654       14.5074494814
  C         4.4838681722        1.5952919763       10.0741765591
  H         2.9754769301        2.9939918891        9.5918696080
  H         4.0152002815        3.6668691313       10.7135149852
  C         5.0798256119        1.7019233107        8.6384496154
  H         3.9342527433        0.6627589958       10.2244490772
  H         5.2520569968        1.4244265378       10.7857212153
  C         6.3912437614        2.5034451542        8.3791676159
  H         4.2559807100        2.1847477456        8.1026796354
  H         5.0740742844        0.7690982845        8.1445948490
  C         7.5946044236        1.7519710315        8.8400243435
  H         6.4846379789        2.6630227467        7.3241222506
  H         6.2525731378        3.3953782249        8.8765390915
  C         8.8167335774        2.6329731041        9.0719113069
  H         7.7127182676        0.9164726432        8.1334350421
  H         7.2183112132        1.2486997754        9.7242035778
  C         8.4459860907        4.0076939016        9.7260832573
  C         9.3585747848        3.3355245204        7.8961918097
  C         9.8649699316        1.8741829865        9.8921192874
  C         8.8529637368        5.1180983668        8.9734050108
  C         8.0570075086        4.4252972549       11.0362128914
  C         9.4447351482        4.6826441931        7.8100822819
  C         9.8765617166        2.7005784648        6.7977797598
  H         9.4664046840        1.7519716284       10.8720802484
  H         9.9108366445        0.8764325428        9.5102645231
  C        11.1813699115        2.6018103502        9.9009935693
  S         8.5007469167        6.6271084407        9.7074384060
  C         7.9736655147        5.7517393844       11.1303876739
  H         7.8928388358        3.6305073770       11.7016691738
  C         9.9450803781        5.2539695105        6.6933482510
  H         9.7346190393        1.6164958511        6.7616426864
  C        10.3246523723        3.3108880517        5.6260328815
  H        11.0860033846        3.7093905410       10.1246120394
  H        11.6759647432        2.3382286923        8.9710501802
  C        12.1076589199        2.0907141269       11.0630228661
  C         7.5996900708        6.4357232985       12.4479971091
  C        10.4396464529        4.6453550669        5.5487359715
  H         9.8620607086        6.3319209753        6.6398812287
  C        10.8589086822        2.9056085745        4.4128449572
  H        13.0363593172        2.6241108158       10.8553950918
  H        12.1025755129        0.9497877128       11.0258311604
  C        11.6821516031        2.5464454154       12.5185538187
  C         7.6910241364        7.7885731488       12.7390236737
  C         7.2531199386        5.5800821489       13.6242647645
  C        11.0077748169        5.2885863598        4.2526666306
  C        11.2462606536        3.9352308433        3.6297781261
  S        11.0870845732        1.3798048592        3.6362892766
  H        12.1400799039        3.4912549348       12.6992179895
  H        10.6003754654        2.7653315408       12.6481092434
  C        12.0956826692        1.5458080467       13.6357730871
  N         7.9764035648        8.8150127836       11.8245412221
  C         7.2960234169        8.3768874771       13.9799407095
  C         6.9688412919        6.0384330954       14.8286169821
  H         7.1917700659        4.5210915107       13.4952428628
  C        12.3895582009        5.9281987045        4.4491111402
  C         9.8986209678        6.1014149123        3.5122126767
  C        11.8246523480        3.5547288777        2.4156309470
  C        11.6782177581        2.1936891396        2.2249677083
  H        12.8681490809        0.8247052816       13.3289276375
  H        11.1840531587        1.0252605892       13.8801835711
  C        12.6140848557        2.2719111993       14.9277437015
  S         7.8782990631       10.2394400776       12.5668401637
  N         7.3509902417        9.7574080624       14.0077713761
  C         6.9662963126        7.5355645354       15.0988382703
  H         6.7850902211        5.3803207266       15.6136733377
  H        12.3542126532        6.9225628093        4.8379685086
  H        12.5427681016        6.0476390703        3.4016181791
  C        13.5515037294        5.1481967640        4.9331662610
  H         9.4176285729        6.8157777729        4.1295008811
  H        10.4844321428        6.6948626614        2.7890996561
  C         8.7961556487        5.2463331531        2.9170653463
  H        12.1215879379        4.3496678674        1.7259759601
  C        11.8416458529        1.4638213154        0.9080686719
  H        13.5780878044        2.8234000796       14.9256100539
  H        11.8372096215        2.9181167077       15.2438642423
  C        12.7757038629        1.1917635678       16.0269691762
  C         6.6144312269        8.1618698605       16.3046100569
  H        13.2426019184        4.4108903651        5.6557478691
  H        14.0075115711        4.6234108992        4.0161218733
  C        14.7207018391        5.9822817706        5.4983892786
  H         8.2806327623        4.6367524909        3.6505019223
  H         9.2514594548        4.6115454907        2.1068147268
  C         7.8313143554        6.1994152556        2.2053827232
  C        11.9013833284        0.0616079793        0.8035825415
  C        11.9583517080        2.2139592532       -0.3468249350
  H        13.5910927458        0.5806212551       15.7127102010
  H        11.9582263822        0.5994685348       16.1416116763
  C        13.2068093054        1.8632026635       17.3057731744
  H         6.8263626988        9.1738202165       16.2982804127
  C         6.4804334531        7.7179042507       17.5789926512
  H        14.3314688131        6.7475280011        6.1407217219
  H        15.2364103872        6.4904007938        4.6860368441
  C        15.7521695541        5.0960437540        6.1082956948
  H         7.3828188328        6.8674001119        2.9686379065
  H         8.2915755941        6.7865228136        1.4640411550
  C         6.6398989349        5.4591989344        1.5718407368
  N        11.7383627597       -0.8229137208        1.7906504828
  C        12.1446827202       -0.5855426198       -0.3363034886
  C        12.2920322203        1.5486106101       -1.5365322466
  H        12.0719180540        3.3565984316       -0.3686563204
  H        12.3841232940        2.4571702856       17.7475440379
  H        14.2050672703        2.2728320723       17.2431918529
  H        13.2839242721        1.1038914553       18.1059188965
  S         6.3458143390        6.0035456310       18.0765436072
  C         6.4293137168        8.6949999671       18.6751009077
  H        15.4591536232        4.9040410600        7.1357606833
  H        15.9376181324        4.0177510971        5.7439984876
  C        17.0292646916        5.8436362148        6.2742735018
  H         6.2073390709        4.7542020830        2.3131584985
  H         7.0815557476        4.8445974807        0.7373999544
  C         5.6224163523        6.3240836159        1.0112691797
  S        11.6172519191       -2.3553538877        1.2846299649
  N        11.9916188977       -1.9751946861       -0.2651195639
  C        12.4127408844        0.0707517161       -1.5351766869
  H        12.3192522335        2.2246930006       -2.4210701252
  C         6.2729611752        6.7383395293       19.7469499554
  N         6.2336230882        8.0878169792       19.8501674515
  O         6.6219284122        9.9022662403       18.4391935190
  H        17.5361990649        6.1668877428        5.3556568169
  H        16.8617284455        6.8313524308        6.7286245748
  C        18.0632656708        4.9946023416        7.1179496720
  H         6.2628539107        7.0984971760        0.5466129497
  H         5.0198493182        5.7136451514        0.3523042226
  C         4.7669704447        7.0745167656        2.0648476491
  C        12.7470230723       -0.6522201138       -2.7238745957
  S         5.6747271932        5.7050239944       21.0960804384
  C         6.4851743068        8.7971171911       21.1433746362
  H        17.5438877578        4.8085083580        8.0383999533
  H        18.0992176717        4.0349739942        6.6511256835
  C        19.4511278238        5.5979420100        7.3289579858
  H         5.2173201744        7.1275538047        3.0439633406
  H         3.8524907359        6.4303380963        2.0692151903
  C         4.5241066350        8.5172045690        1.5883354132
  H        12.5149434511       -1.7087682981       -2.7204407522
  C        13.1739994092       -0.2142527471       -3.9713404918
  H         6.1723876312        8.2546832007       22.0122160451
  H         5.9380717162        9.7150349625       21.2004270075
  C         7.9499220786        9.0667020564       21.3844404836
  H        19.9937298987        4.9853711111        7.9699213963
  H        19.5101745456        6.5645263595        7.7745388742
  C        20.1680413992        5.8428637613        5.9708325594
  H         5.4337327603        9.0937084990        1.7151090565
  H         4.1179319577        8.6027252531        0.5441925097
  C         3.5401275529        9.1223982725        2.5872394207
  S        13.7312036741        1.2701781041       -4.3480476517
  C        13.0661572761       -1.2312086448       -5.0745377898
  H         8.2650095642        8.3476554397       22.1338038446
  H         8.2285870897       10.0381994607       21.8218845413
  H         8.4733639291        8.9327930629       20.5009483540
  H        20.2241353126        4.8501062701        5.5367909742
  H        19.6138275785        6.5727851962        5.3494072586
  H        21.1291174456        6.2341411754        6.0222794258
  H         2.8637599438        8.3392708567        2.9189709347
  H         4.0386591431        9.6425451066        3.4254356131
  H         3.0119498830        9.9693660496        2.1721253014
  C        14.1604964037        0.5468955463       -5.9518140894
  N        13.8370747591       -0.7436146073       -6.1500766810
  O        12.7218713915       -2.4135558984       -5.0173433304
  S        15.2938778336        1.2021600295       -7.1732250908
  C        14.1954392841       -1.6252408153       -7.3160281049
  H        14.6567943316       -2.5451709045       -7.0671622135
  H        14.9205212414       -1.0697600235       -7.9325950162
  C        12.9481477728       -1.8824724564       -8.2685167888
  H        12.0186634511       -1.6334777829       -7.7640367519
  H        12.9233551677       -2.9571882100       -8.5360131302
  H        12.9855024470       -1.2886108899       -9.1485877599
