352
 i =    44300, time =    22150.000, E =        99.8422963764
  H         9.5955335626        5.6035372943       31.6492952132
  C        10.3968016620        6.2211057000       31.9587930553
  H         9.8229943083        7.0125511461       32.3194816913
  C        11.2802169757        6.7931401518       30.7960599024
  C        11.2181767289        5.5785191448       33.0454628966
  C        11.6355566535        5.8780096056       29.5863966108
  H        10.8861560099        7.7855891748       30.4753894415
  H        12.2190465202        6.9531532649       31.3654985259
  H        11.9995073840        5.0287671396       32.6124582554
  H        11.6600311207        6.4010380224       33.5707666688
  H        10.6821754641        4.9831741243       33.7476068716
  C        10.4841068748        5.5686533818       28.7782110725
  H        12.1243397220        4.9317959258       29.7967955757
  H        12.3812645895        6.4186327862       28.9824580226
  C        10.8388366635        5.5308844622       27.3710883093
  H        10.1851550962        4.4760884531       29.1277520877
  H         9.6793593382        6.1818107210       28.9743326577
  C         9.7576979868        4.8162295392       26.5100147576
  H        11.8520761112        5.2040399312       27.2315838104
  H        11.0258979644        6.5100807706       27.0863337837
  C         8.5853855678        5.8066676977       26.1369462017
  H        10.2596690231        4.4127207180       25.6021470614
  H         9.3882110749        3.9629756808       27.0630832487
  C         7.3530036045        5.0662188734       25.4350330037
  H         8.2967828424        6.2034988732       27.0555755405
  H         8.9803615262        6.6511372761       25.6120747871
  C         7.0058431207        3.7141296231       26.1288723337
  C         7.7395989110        4.3529596309       24.1634360453
  C         6.0861105794        5.9529066135       25.2649650685
  C         7.3051540852        2.5974801503       25.3483329174
  C         6.5072718357        3.3139329563       27.3750592279
  C         7.7368089426        3.0013072836       24.0889866875
  C         8.1673106496        4.9758762168       22.9446153369
  H         6.2906068370        6.8698155735       24.7722387606
  H         5.8994851221        6.3365175505       26.2437250264
  C         4.8544811199        5.2093623322       24.7440853583
  S         6.9311057304        1.1442429372       26.1005272642
  C         6.3612953759        1.9646878346       27.5525204993
  H         6.2381096396        4.0143188667       28.1190164726
  C         8.0719320114        2.3101376793       22.9494642159
  H         8.2572730215        6.0615320025       22.9969834600
  C         8.4624072598        4.3444121602       21.7683116511
  H         5.2190111896        4.8827546913       23.7125558969
  H         4.6689340525        4.4133475329       25.3464865803
  C         3.6251828977        6.0817687176       24.7961338707
  C         5.9815262716        1.2112375390       28.7216298844
  C         8.3420011707        2.9838425490       21.7347478094
  H         8.1828469684        1.2354064376       23.0056912456
  C         8.9144614647        4.7088149602       20.5341751089
  H         2.7516981512        5.6854846240       24.3030044999
  H         3.7958238685        6.9907815437       24.1855402855
  C         3.0369559661        6.3493900869       26.2059548440
  C         5.9668807011       -0.1845532028       28.9446048993
  C         5.5808512477        2.0532274501       29.8814090059
  C         8.6507060121        2.2999841548       20.4086169324
  C         8.9825367662        3.6362172452       19.6784466734
  S         9.1552976940        6.2224811624       19.7214797990
  H         2.1954217993        7.0560779298       26.0255297529
  H         3.7940854955        6.7419608008       26.8709102555
  C         2.3926402622        5.0335619743       26.8581251164
  N         6.4325894868       -1.1393689910       28.0479791773
  C         5.5607137548       -0.7122991959       30.1596557226
  C         5.0329974685        1.4175014506       30.9931047013
  H         5.4315110255        3.1141802689       29.9029819105
  C         7.4060539905        1.5471901113       19.7576783589
  C         9.8627690780        1.4100567831       20.4523210631
  C         9.4316547289        3.9496632558       18.3890274782
  C         9.5133034448        5.3291350833       18.2876236199
  H         1.6371798676        4.5742367780       26.2234060804
  H         3.1255600620        4.2309205512       27.1045003361
  C         1.7276788764        5.2032488958       28.2405718731
  S         6.4424842959       -2.5946820349       28.7784817382
  N         5.7185928956       -2.0793005115       30.1805107669
  C         5.1244882303        0.0179216739       31.2524694666
  H         4.5805390844        2.1111300225       31.6736432877
  H         7.0019989139        0.8757555519       20.4563905435
  H         7.8237090744        0.8462914431       19.0561913669
  C         6.3864626579        2.4495956985       19.1185250370
  H        10.1082747248        1.0764848005       19.4822259307
  H         9.5633403506        0.5597050466       21.1237821696
  C        11.1343848743        2.1632644147       20.9771895794
  H         9.5803572467        3.1735670832       17.6738120895
  C         9.9162220499        6.0617416355       17.0277572188
  H         0.9022821022        4.6470072568       28.2983118845
  H         1.4419990584        6.2249098618       28.1991644936
  C         2.7980074493        4.9368944463       29.3501766892
  C         5.0085785990       -0.5632622449       32.5538030279
  H         6.7869398803        3.1567411821       18.2705942911
  H         6.0317022999        3.2913147652       19.7706296727
  C         5.1389267445        1.7249474552       18.5928771899
  H        10.9935612146        2.8870231033       21.7716966102
  H        11.4412972505        2.6916840906       20.1411785204
  C        12.4233203326        1.3861681665       21.3036592491
  C        10.0821487734        7.4565847605       16.8891936892
  C        10.2412769664        5.2425412910       15.7981802923
  H         3.0745777471        3.8661084945       29.2251706458
  H         3.6871124676        5.5290098657       29.2397678260
  C         2.1682384592        5.2210024339       30.6803440709
  H         4.9652578648       -1.6419750466       32.6224467811
  C         4.8862986246       -0.0789013764       33.8466257698
  H         4.6914474326        1.2237398939       19.4661305007
  H         5.5028411840        0.9442183085       17.9146259892
  C         4.0411168745        2.5718326997       17.8726610191
  H        12.3107404915        0.4729789963       21.9285470324
  H        12.8892984906        1.0336974918       20.3469475480
  C        13.4668455232        2.3290750652       21.9721767121
  N        10.0046419827        8.3908237270       17.8941254934
  C        10.3908164117        8.1183992235       15.6979563096
  C        10.5512466859        5.8890231928       14.6165298156
  H        10.3501621188        4.1417093913       15.8242010577
  H         2.7524625325        4.6527941134       31.3542349257
  H         2.0918665384        6.2634469592       31.0237397008
  H         1.1647471082        4.8557125992       30.6658583346
  S         4.5976116232        1.5704730856       34.4275948398
  C         4.7061692543       -1.1010694920       34.9525556223
  H         4.0726197869        3.5717507623       18.3116731069
  H         4.2073150352        2.5634185123       16.8430120298
  C         2.7196093943        1.8717700297       18.1451002001
  H        13.1425612224        2.9147742993       22.8664170736
  H        13.6562850508        3.0658230302       21.1827127147
  C        14.5876094705        1.3575701735       22.4045515874
  S        10.1229955724        9.8724269657       17.3620018744
  N        10.2384979775        9.5081305218       15.7989582507
  C        10.6711971958        7.3955097081       14.5622497629
  H        10.7945442357        5.2999744663       13.7819255916
  C         4.2539095140        0.7852871961       35.9692352620
  N         4.3394080589       -0.5256117232       36.0663526288
  O         4.8222286899       -2.2910040874       34.7311313079
  H         1.8540716553        2.4593043034       18.0318044635
  H         2.7127496510        1.5847232135       19.2086320656
  C         2.5060458802        0.6195591876       17.3305849783
  H        14.3316079865        0.9440085540       23.3743317760
  H        14.8398596773        0.5385652263       21.7019627116
  C        15.7628020903        2.2799506543       22.6292479985
  C        10.9348823832        8.1515561956       13.4167709629
  S         3.7913091725        1.7402011861       37.4528824044
  C         4.2273619369       -1.1950458193       37.3301228779
  H         1.5813030414        0.9364769040       16.9061776991
  H         3.1761163516        0.4035669971       16.4901393299
  C         2.4530718948       -0.7128004039       18.0565215242
  H        15.6156667686        2.9001620820       23.5306340545
  H        15.7655383837        2.9679512081       21.7685590005
  C        17.0423062955        1.5942080042       22.6428961089
  H        10.7572278336        9.2083422901       13.5197274474
  C        11.3513238659        7.8713807781       12.1799582246
  H         3.5514942054       -0.6927712946       37.9925447325
  H         3.8581509955       -2.1694674454       37.1248762618
  C         5.7119149191       -1.2393672185       37.9199238589
  H         1.8182279116       -0.7253577954       19.0064963908
  H         3.4160931412       -0.8652404408       18.4535319412
  C         2.0707637174       -1.8377865136       17.1140010755
  H        17.1884142426        1.0820877930       23.6509392206
  H        17.0489437439        0.6972816404       21.9355065559
  C        18.1424279099        2.5141360096       22.3457445739
  S        11.8078147072        6.3336791382       11.6228262980
  C        11.3699031554        9.0500545945       11.2284300428
  H         5.9640292553       -2.1675027060       38.4210231506
  H         6.4145658172       -1.2165205817       37.1376535562
  H         5.8261903611       -0.5205826083       38.7383992391
  H         2.8878274479       -2.4872257709       17.0541658162
  H         1.6527154546       -1.5026121464       16.1752155165
  H         1.2252916383       -2.3851899249       17.6163810431
  H        18.5026895790        2.9129273190       23.3523845525
  H        17.8624991406        3.4077036559       21.7972996253
  H        19.0083638990        1.9530516310       21.8290770535
  C        12.0558783214        7.2200330833       10.0471358550
  N        11.8814534851        8.5896592607       10.0800156369
  O        11.1093099833       10.2331216281       11.4588158370
  S        12.6653510095        6.3657217941        8.6048365216
  C        12.1558496213        9.4002632402        8.9339462528
  H        12.4535040375       10.4042600562        9.1784663706
  H        13.0688759256        8.9642848027        8.4119182198
  C        11.0078395946        9.4279603657        7.9492550139
  H        10.6416015075       10.4196624158        7.5544024614
  H        11.3896610348        8.9079933917        7.0644711476
  H        10.1633339689        8.8735480933        8.3294645957
  H         4.1239358334        0.8948548509       12.3046996445
  C         3.7955521950        1.8728621591       12.6209460732
  H         4.6484788772        2.4928673466       12.9083254562
  C         3.0523884383        2.6017804699       11.5918153170
  C         2.9923934095        1.7840347009       13.9555319368
  C         3.9671911949        2.7986104159       10.3808808835
  H         2.6504224035        3.5311370617       12.0320382916
  H         2.2143758355        1.9516907066       11.3450920712
  H         2.0553979070        1.3260851601       13.7675135556
  H         2.8450220975        2.7506166231       14.4520146435
  H         3.5829724300        1.1046476365       14.6219496274
  C         4.5075345325        1.4730124984        9.8520564759
  H         3.2848761125        3.1080271548        9.5958395643
  H         4.5768499198        3.6034931896       10.4698921011
  C         5.1827041203        1.4817177875        8.4577900872
  H         3.6469856648        0.7775490145        9.8529482940
  H         5.2532822499        1.1081149656       10.5784901766
  C         6.5258564866        2.3027912368        8.5015767920
  H         4.6037019533        1.8665444274        7.6625786283
  H         5.4214557781        0.5113991438        8.0040265039
  C         7.8111668303        1.6257600470        8.9895305355
  H         6.6769084654        2.5223141063        7.4233423880
  H         6.3272906492        3.2694479719        8.9598170672
  C         9.0349826619        2.5480745851        9.1102913791
  H         7.9010290919        0.7549476941        8.4529736343
  H         7.6432467968        1.4156203891       10.0138457877
  C         8.6450618141        3.8545749958        9.7335441738
  C         9.4178747627        3.2287935027        7.8419177093
  C        10.2911680653        1.9591117562        9.8351838364
  C         8.9711578352        4.9482885683        8.9540339179
  C         8.1068259165        4.2155342724       11.0176479232
  C         9.4528906588        4.5830880222        7.7304721908
  C         9.9589641787        2.6087309838        6.7513161084
  H         9.9258494004        1.6017136354       10.7935569581
  H        10.5421329333        1.0257486572        9.3252207650
  C        11.5039633229        2.9436326557        9.9798758652
  S         8.6368706071        6.4341027281        9.7515195568
  C         8.1124141621        5.5920991648       11.1654578080
  H         7.8973410434        3.4815875989       11.7600661050
  C         9.9005323065        5.2299160237        6.6771210982
  H         9.9759892226        1.5375555008        6.7835578058
  C        10.5081473722        3.3146233294        5.6643560581
  H        11.1232300190        3.9215141013       10.2933271070
  H        11.9968370337        3.1155242145        9.0432748885
  C        12.4913775420        2.5344932008       11.0500476782
  C         7.7638365815        6.3637764095       12.3337128489
  C        10.5466250923        4.6585808809        5.5599830084
  H         9.7729618419        6.3113496508        6.7339690285
  C        11.0655212374        2.9117267940        4.4775681594
  H        13.3779878358        3.1409076004       10.9941810754
  H        12.8188398843        1.5424644001       10.8095917151
  C        11.9829469867        2.4588216273       12.5252519784
  C         7.8204140453        7.7388973740       12.5164122081
  C         7.3954283612        5.5972709368       13.5714117945
  C        11.0724316851        5.3516528061        4.4115664433
  C        11.3179601931        4.0334377755        3.6741660381
  S        11.2165781557        1.4599550455        3.6234229957
  H        11.6915800149        3.3961791154       12.9949257936
  H        11.1876670567        1.7200702467       12.5675334527
  C        13.1119670315        1.9617127548       13.4113261531
  N         8.0394633417        8.6212249542       11.5251620398
  C         7.4808052573        8.4158147638       13.6556173432
  C         7.0001179185        6.2670499861       14.6874140196
  H         7.2851405261        4.6077724765       13.5921293015
  C        12.3735832466        6.2699188025        4.6504796607
  C        10.0270141619        6.2623218345        3.6661711647
  C        11.7409122872        3.6874527076        2.3891218210
  C        11.7702677916        2.3360712740        2.1892664849
  H        13.6948209697        2.8451109774       13.5915011093
  H        13.7274892477        1.3347923444       12.8367340818
  C        12.6118057219        1.2237551644       14.6948241156
  S         7.7997064632       10.1938581469       12.0174566550
  N         7.4984854824        9.7852318951       13.5640472876
  C         7.0777673644        7.7579621476       14.8595732476
  H         6.6391695430        5.6554297661       15.5418692667
  H        12.2505933813        6.7043361676        5.5991703604
  H        12.6464666134        7.0953092939        3.9958718584
  C        13.6285469551        5.3831834180        4.7761218104
  H         9.6948127277        6.9651691986        4.3455862339
  H        10.4735708691        6.8622729303        2.9192874778
  C         8.7704639651        5.6483325805        3.0063169419
  H        12.0956103456        4.4197673772        1.6767812638
  C        12.0224704750        1.7168446380        0.8682974515
  H        11.5340460948        1.4166416449       14.8861368282
  H        12.6804679692        0.1436221345       14.4614119344
  C        13.5982169311        1.4852169342       15.8542444695
  C         6.8353145142        8.5563883490       16.0453770506
  H        13.4084318195        4.5397246884        5.4019794207
  H        14.0156911799        4.9880026244        3.8559466370
  C        14.8246069273        6.0970460596        5.3726581013
  H         8.3317884901        4.8809697903        3.6956532712
  H         9.0984666843        5.0423785706        2.1779697258
  C         7.6359811528        6.5882603152        2.4205872905
  C        12.0148099842        0.3173596179        0.6739700544
  C        12.3254765871        2.5481211462       -0.3132237951
  H        14.4594056214        2.0492420306       15.4320600578
  H        14.1150928790        0.5804149866       16.2571107935
  C        12.8776378017        2.2461444950       17.0622815821
  H         7.0260162526        9.6961963873       15.8859917685
  C         6.5686448735        8.2492000213       17.4028176984
  H        14.6230213321        6.4169460419        6.3773987299
  H        15.0346153990        6.9509971030        4.7439286785
  C        16.0176102452        5.1209835298        5.4449731359
  H         7.3108811536        7.2431584549        3.2344260100
  H         7.9925150882        7.2489907457        1.6583494752
  C         6.4752756149        5.8080354114        1.7565397388
  N        11.7790898141       -0.6550372886        1.6248127780
  C        12.4028628630       -0.2279979853       -0.5201693958
  C        12.5619135804        1.9596649963       -1.6137013934
  H        12.3978710588        3.6019572287       -0.1776879136
  H        12.3075260029        1.4988010396       17.6861482205
  H        12.1953906743        2.9453509723       16.6951871879
  H        13.6037321400        2.7169487393       17.8068572507
  S         6.2602464727        6.6855389038       18.1465428608
  C         6.4772871317        9.3261620821       18.4429761197
  H        15.7766318361        4.2549700625        6.0951727671
  H        16.1107651129        4.8045988713        4.4130928504
  C        17.1631561385        5.8060852483        5.9831888956
  H         6.2123445738        4.8944292357        2.2008531492
  H         6.9575951710        5.5639891604        0.8452297614
  C         5.1436746845        6.5743074949        1.5068323453
  S        11.6951123126       -2.1286998160        0.8910456786
  N        12.3276148484       -1.6328317307       -0.5312756957
  C        12.7060221466        0.4959096118       -1.7359514948
  H        12.7233311389        2.6775049204       -2.4423599081
  C         6.1090727492        7.4501663326       19.7530021374
  N         6.2398652005        8.8164992860       19.6921041041
  O         6.6988391195       10.4891154844       18.2063857319
  H        17.7262489491        6.3041006829        5.2038518715
  H        16.7620495601        6.6852543403        6.4905403216
  C        18.0418200318        4.9074748740        6.9285184952
  H         5.4944973288        7.3960285791        0.8980177783
  H         4.3636720314        6.1110873257        0.9326647112
  C         4.4793199385        7.1184595402        2.7891621384
  C        12.8841728655       -0.2531267228       -2.9601513880
  S         5.6728831733        6.5041446337       21.1875806271
  C         6.2748667037        9.5967219894       20.8907060214
  H        17.4606941265        4.5808830818        7.7783892646
  H        18.4202291669        4.0018961103        6.4333080786
  C        19.1669125836        5.7177696396        7.5940901896
  H         5.0042621511        6.9749948810        3.6909045039
  H         3.6180144988        6.4818025511        3.0019351997
  C         4.1070499930        8.5952265475        2.7110415430
  H        12.6253060712       -1.2792287347       -2.8673432702
  C        13.3544222924        0.1636078238       -4.1547001724
  H         5.6689901685        9.0276538617       21.6616321938
  H         6.0229738818       10.6855606363       20.8429710829
  C         7.7438940941        9.4764378764       21.4645495934
  H        19.5690356093        5.2274640783        8.5124515640
  H        18.6564270062        6.6440055446        7.9878273892
  C        20.1891205638        6.0754878080        6.5114779268
  H         3.7418675758        8.8592394775        3.7315518867
  H         4.9562850112        9.1790536349        2.5760079989
  C         3.1317601253        8.9395657512        1.6156841915
  S        13.9421628764        1.7387883859       -4.4637527909
  C        13.4556986020       -0.8060818638       -5.2610397655
  H         7.9745082671        8.4670111409       21.7270365419
  H         7.8134422594        9.9237083859       22.4680742025
  H         8.5436058743        9.8772320765       20.8327285529
  H        20.3086373570        5.1793359408        5.9813471876
  H        19.8653624939        6.9120491519        5.8678628062
  H        21.1808854076        6.3500066978        6.9227437386
  H         2.9961477265       10.0236619785        1.6827844088
  H         3.5398989629        8.6657773003        0.6466726640
  H         2.1264066226        8.5295036226        1.8727410366
  C        14.2912354795        1.0854153949       -6.0829558907
  N        14.0405081376       -0.2149752886       -6.3157080481
  O        13.1547839506       -1.9689702237       -5.0969413817
  S        14.5625506295        2.0798948994       -7.5231500653
  C        14.2308197040       -0.9391885176       -7.5261107857
  H        14.6541790178       -1.9119628803       -7.3037163824
  H        14.9888509288       -0.4196727880       -8.1958753274
  C        12.9362894090       -0.9605293462       -8.3565145626
  H        12.3530376734       -1.8453883138       -8.0565483566
  H        13.1360970993       -1.0658056386       -9.4690746433
  H        12.4091373672       -0.0557383796       -8.1967701735
