352
 i =    40200, time =    20100.000, E =       100.2009184137
  H        10.0495063694        5.1582336482       32.1175206570
  C        10.4362276807        6.0259522669       32.5371044250
  H         9.6188270664        6.4028105911       33.1279254599
  C        10.9146453724        6.8832892734       31.3569943254
  C        11.5303033295        5.4856881393       33.5351588499
  C        11.3648217525        6.1250822510       30.0961062635
  H        10.1567083875        7.5388322010       30.9514048622
  H        11.7348375573        7.4108270209       31.8607628498
  H        11.5966041227        6.1127219258       34.3964444197
  H        11.0985468822        4.5209829734       33.8469129851
  H        12.4319404572        5.4377698368       32.9148495918
  C        10.2026120207        5.9069593072       29.2116484732
  H        11.8335811455        5.2462896807       30.4597819820
  H        12.1452628338        6.6794359473       29.5003153786
  C        10.5548750527        5.4987227867       27.7984369629
  H         9.5083434379        5.1257705622       29.4949123166
  H         9.6519132807        6.8322022878       29.0881672125
  C         9.4329739960        4.8596220866       27.0175791542
  H        11.4835319879        4.9709486480       27.9025124463
  H        10.7691445424        6.5297623237       27.3999022374
  C         8.3130035053        5.8022264932       26.5892614021
  H         9.9095016858        4.3231985541       26.2421908568
  H         9.1037464159        4.0436371165       27.7181465352
  C         7.1548780670        5.1554668173       25.8587975816
  H         7.9202522590        6.4481744038       27.4148285938
  H         8.6119357136        6.5784803967       25.8415440952
  C         6.7999651839        3.8254570384       26.4750970313
  C         7.5956848183        4.4453044392       24.5333335595
  C         5.9356936903        6.1079340872       25.7367379922
  C         7.1072569610        2.7571815671       25.6431707876
  C         6.1584235722        3.4645116552       27.6560012198
  C         7.6014873965        3.0656802668       24.4282873556
  C         8.1257708663        5.0163067828       23.3541515668
  H         6.1359499554        7.1852877136       25.4591657320
  H         5.4723710540        6.3571399281       26.6410643194
  C         4.7902433688        5.3322801219       24.9918235949
  S         6.6485439068        1.2588437149       26.3289949880
  C         5.9859109271        2.1096292758       27.6383383519
  H         5.9153405867        4.1351133768       28.3737615100
  C         7.9732749162        2.3812787962       23.2888132697
  H         8.1848729154        6.0632003097       23.2964148142
  C         8.4567525788        4.3545290684       22.1866628700
  H         5.0473354932        4.9812489873       24.0533747366
  H         4.4899388721        4.4713509951       25.5631220118
  C         3.5211441293        6.0490640349       24.6510517117
  C         5.4713656449        1.3683728621       28.8312014760
  C         8.4096610586        2.9633965311       22.1210853194
  H         7.9697641029        1.2990142610       23.3213427224
  C         8.8377615392        4.7160249230       20.9401259522
  H         2.9523848885        5.4213353626       24.0991685077
  H         3.7762972920        6.8940826468       24.1351178782
  C         2.6338987949        6.3455878768       25.8866410663
  C         5.5453163009       -0.0057857554       29.1105805112
  C         5.1141349099        2.2667930286       30.0077071963
  C         8.8178625995        2.2270900516       20.9185260211
  C         9.0766442005        3.5281544138       20.1752508010
  S         9.1906298214        6.1260451565       20.1213896055
  H         1.8791239075        7.1306174281       25.6298086265
  H         3.2752798514        6.8692816516       26.6305991640
  C         1.8617409993        5.1734424957       26.4272791227
  N         5.9275671445       -0.9954848669       28.1292012909
  C         5.3251081645       -0.5577421047       30.3637838808
  C         5.0663149960        1.6240863764       31.2714033714
  H         5.0609257453        3.3683748938       29.9120002139
  C         7.6946453962        1.4248519216       20.1127205128
  C        10.0308368237        1.3729772790       21.1634249581
  C         9.3694953184        3.9153448924       18.8336010396
  C         9.5354480758        5.2460870297       18.6669376568
  H         1.1357377978        4.9400863356       25.6091036131
  H         2.4590785957        4.2593009597       26.4919822476
  C         1.0144691671        5.6218972602       27.6695387953
  S         6.0091753020       -2.4175702428       28.8277402585
  N         5.6206682459       -1.9409502805       30.3647323536
  C         4.9946279487        0.1800976803       31.5217762321
  H         4.9779725189        2.2144498066       32.1549972311
  H         7.3009687519        0.5242580035       20.6838141306
  H         8.0253281478        0.8130206666       19.2762485369
  C         6.3972608265        2.2097548030       19.8623894811
  H         9.9886583983        0.7021624624       20.2785375373
  H         9.8227509904        0.7522978186       22.0856637126
  C        11.2963234930        2.2329408108       21.4490420473
  H         9.4868132989        3.1347726304       18.0306755061
  C         9.9178079820        5.9479502723       17.3817117114
  H         0.1599628040        4.9132716245       27.7028195701
  H         0.6796831525        6.6697145571       27.5824677000
  C         1.8779128889        5.3697530050       28.9425512930
  C         4.8808069954       -0.4429835556       32.8078639560
  H         6.5539278849        3.2373730764       19.9586482184
  H         5.7547183056        1.8434961484       20.6309403907
  C         5.8524639231        1.8710532133       18.4704819808
  H        11.1815190683        2.9612039892       22.3551449716
  H        11.5002000378        2.8253787947       20.5872674315
  C        12.5565967681        1.2816977507       21.6470434166
  C         9.9446319093        7.3791390877       17.1774851602
  C        10.2686671795        5.1055074012       16.1886518874
  H         2.1747752728        4.3554602451       29.0158259406
  H         2.8086545919        5.9433264075       28.9147931141
  C         1.0447822634        5.6496811162       30.1667641354
  H         4.8737033829       -1.5390921760       32.7167331513
  C         4.6536213171        0.0017090092       34.0707486831
  H         6.0013450285        0.8029883374       18.1869663594
  H         6.4214205205        2.3032386241       17.6526702378
  C         4.3472302828        2.1430981493       18.2610231258
  H        12.4699776518        0.7411037834       22.6269736257
  H        12.6926007766        0.4695770094       20.9282824020
  C        13.8672169412        2.0142485722       21.6149203064
  N         9.6832689481        8.3338188602       18.1749474932
  C        10.2129585022        7.9267877854       15.9419356463
  C        10.6069009130        5.7041654634       14.9743869002
  H        10.3122626687        4.1067820118       16.3256975673
  H        -0.0188882162        5.8423685618       29.9249874144
  H         1.1291718272        4.7716721827       30.7087264808
  H         1.4005415683        6.4736650688       30.7824538353
  S         4.0713886439        1.4955690437       34.5532961308
  C         4.6587446865       -1.0258988401       35.1348338290
  H         4.0723823347        3.1056736670       18.6742739623
  H         4.3474287395        2.3740883731       17.1364619006
  C         3.2447677306        1.1565346762       18.5691623766
  H        13.7898678282        3.0402809706       21.7128766670
  H        14.3049383505        1.7212980860       20.6609690758
  C        14.7445469279        1.6393920788       22.7996829557
  S         9.6564063530        9.8151965582       17.4220920465
  N        10.1086069032        9.3263181439       15.9611028232
  C        10.6339808855        7.1875235913       14.8238907178
  H        10.7019914513        5.1195886940       14.0604363439
  C         3.9253040781        0.7639949513       36.1869471898
  N         4.2536706401       -0.5362953924       36.2946740624
  O         5.1200910070       -2.1570807945       34.9588280504
  H         2.3437991031        1.7343516172       18.8062627678
  H         3.5082357136        0.6744887843       19.4972752655
  C         3.0402859212        0.2160615033       17.3962674705
  H        14.1972716833        1.4638483748       23.7338024942
  H        15.3244972662        0.7584481832       22.5566698433
  C        15.7824260046        2.7679092374       23.1728442070
  C        10.9526801152        7.9539197951       13.6403223359
  S         3.5360343965        1.4138510156       37.7439532302
  C         4.4752907376       -1.3569772883       37.4977114893
  H         2.5227007713        0.7690058937       16.6171332344
  H         3.9886427981       -0.1791546950       16.9130234110
  C         2.1523378919       -1.0001524450       17.8484610388
  H        15.3984917127        3.3119994926       24.0573896773
  H        15.9418591363        3.5350867788       22.4266964540
  C        17.0281805198        2.0927947571       23.6658408832
  H        10.6996827512        8.9925787206       13.6398033793
  C        11.5730723527        7.6079157788       12.4393285303
  H         3.6814824965       -1.3158224344       38.2680734833
  H         4.3219056770       -2.3680124191       37.2449917117
  C         5.8808438166       -1.2595648897       38.1001202119
  H         1.2450962711       -0.5433966336       18.3551794295
  H         2.6940442007       -1.4937161893       18.6391255651
  C         1.8758256552       -2.0235080357       16.7309162376
  H        17.3721213059        2.5574543843       24.6562127999
  H        16.8736055359        1.0213801705       23.7940703376
  C        18.1624000448        2.2549648913       22.6244796854
  S        12.1929354209        6.0664896212       11.9713254994
  C        11.5928649511        8.5930637343       11.3415818207
  H         5.9893045789       -0.5946063313       38.9872064140
  H         6.0894729627       -2.2759662113       38.4229001991
  H         6.6266146737       -1.1502539191       37.2949480680
  H         1.3631816743       -2.8151111799       17.1876124352
  H         2.9138167711       -2.3265407563       16.6332515389
  H         1.3874960138       -1.6350474730       15.7739993555
  H        19.0011551685        1.7428983589       22.9168588974
  H        18.4053742819        3.3069913910       22.4482315840
  H        17.8537876079        1.9137653828       21.6791524820
  C        12.5436278123        6.7793600322       10.3725882481
  N        12.2617276705        8.0480478125       10.2627989295
  O        11.1262595263        9.7192702717       11.4655663831
  S        13.5984734745        6.1031370466        9.0934073788
  C        12.4152919531        8.8065932453        9.0880952876
  H        12.4567277872        9.9007229439        9.2706958669
  H        13.4140130693        8.6477571471        8.6551645932
  C        11.3633916698        8.5133291791        8.0985891090
  H        11.2734020465        9.2168985634        7.3067635758
  H        11.4947275009        7.5906346246        7.6100397965
  H        10.4184875054        8.4322541183        8.6029356570
  H         4.5760368321        1.0703901923       12.9626642133
  C         4.4172441018        2.1080778922       12.8769163875
  H         5.4956160406        2.4425471444       12.8578791355
  C         3.6423481335        2.6429961856       11.6534500633
  C         3.9068678934        2.6483364054       14.2339256144
  C         4.5645506783        2.7698303815       10.4661990837
  H         3.3391573861        3.6186729606       11.9358507328
  H         2.7060190262        2.1705316650       11.4523075151
  H         4.1015396243        1.8575021025       14.9395307486
  H         2.9143787345        2.9333014638       14.1124760108
  H         4.4404952525        3.5032918530       14.5555061866
  C         4.9164696882        1.4498584145        9.7495403392
  H         4.1032645743        3.4074842185        9.7703124793
  H         5.4934847282        3.2874027205       10.7439578763
  C         5.6436354414        1.6404431291        8.3386841596
  H         4.0789049248        0.8104676731        9.6867744806
  H         5.7151416723        1.0216527270       10.3611229878
  C         6.9499136676        2.4910009826        8.2796335059
  H         4.8780798185        2.1183207537        7.7142508853
  H         5.7579641184        0.6778413001        7.7966024808
  C         8.1520097117        1.8452410496        8.8969179143
  H         7.1184678862        2.8787720337        7.2321660559
  H         6.5978163128        3.2494395074        8.9348788734
  C         9.3906777688        2.6839918191        9.1966684755
  H         8.4065821091        1.0589787908        8.1687009262
  H         7.8575972301        1.3108202894        9.8350781693
  C         8.9844556660        4.0375497668        9.8805373496
  C         9.7418998855        3.4798463760        7.9466276799
  C        10.4697477838        2.0148827632       10.0473548240
  C         9.1377055511        5.1437753530        9.0760560276
  C         8.4739395488        4.3744005938       11.1489988922
  C         9.6763743081        4.8203975289        7.8458115601
  C        10.2223735088        2.8488934969        6.8013928659
  H        10.2840153099        1.5802567780       11.1003693481
  H        10.8135800832        1.1080005665        9.4940665809
  C        11.7079531255        2.9335118331       10.3056436537
  S         8.6477548504        6.5966116252        9.7983970518
  C         8.2599393819        5.7269096732       11.1845592717
  H         8.2071138062        3.5055971321       11.7272505790
  C        10.0206208811        5.4362048622        6.6806282780
  H        10.2572292040        1.7619413272        6.8340099648
  C        10.5554028783        3.4434739992        5.6333906488
  H        11.4118257218        3.8599790989       10.7434440335
  H        12.1080201456        3.2384113292        9.3748447888
  C        12.7986498644        2.3181169821       11.1692057391
  C         7.5800919647        6.3996911440       12.3829257141
  C        10.4818965671        4.8107544262        5.5427714862
  H         9.8115683109        6.4833500126        6.6747262435
  C        10.8724938228        3.0467229787        4.3606512460
  H        13.6588958799        2.9877848387       11.1043198229
  H        12.9917287474        1.2867248214       11.0288178677
  C        12.4441126680        2.4118513384       12.7096134042
  C         7.6393415260        7.7400042683       12.6260964326
  C         7.3057955906        5.4643956851       13.4877588461
  C        10.8073218961        5.4430266402        4.2093053858
  C        11.0805139628        4.1288474171        3.5416436230
  S        11.0842489013        1.4903597427        3.6436265497
  H        12.9425633687        3.2744245218       12.9577054508
  H        11.3940832804        2.5666149076       12.9351768487
  C        12.8959726163        1.4069836502       13.7789986072
  N         8.1004972655        8.7233111966       11.8016070013
  C         7.2297553354        8.2465179476       13.8172136295
  C         6.9027044711        5.9397815819       14.7270001239
  H         7.1414584439        4.4323594112       13.2889603470
  C        12.0770060476        6.2868683365        4.2526460740
  C         9.7167369622        6.2743024315        3.4295121224
  C        11.5008243283        3.6953995072        2.2763130466
  C        11.5235370313        2.3046597663        2.1728453196
  H        13.8425906339        1.0712570813       13.4825634572
  H        12.1812084624        0.5847921264       13.7282719913
  C        12.9756793329        2.1044175937       15.1388144282
  S         8.0370375618       10.1539252014       12.4996871913
  N         7.2841290294        9.6146128320       13.8273836456
  C         6.7268690003        7.4324576715       14.8613048020
  H         6.5786775251        5.2253474948       15.4750555942
  H        11.9620751513        7.0445248737        5.0623223558
  H        12.1316497903        6.9360115915        3.3517339725
  C        13.3886543200        5.5447526037        4.4847548868
  H         9.6104381961        7.1873622582        3.9884877898
  H        10.1013245698        6.4077136108        2.3876247693
  C         8.4249859945        5.6009391599        3.0651464551
  H        11.6841950714        4.4670813525        1.5211068847
  C        11.7873136737        1.5108475368        0.9320204054
  H        13.8824631558        2.4777789736       15.2628991561
  H        12.3103992252        3.0053672916       15.1750833373
  C        12.6199554954        1.1739826250       16.2709661537
  C         6.4687416239        8.0600470435       16.1393952317
  H        13.4241829627        4.9559674720        5.4356523260
  H        13.5426168797        4.7368415622        3.7127610197
  C        14.6185179463        6.4508942242        4.5704463511
  H         8.0947576098        5.2016790009        3.9991259532
  H         8.7791065079        4.7221769924        2.5606333791
  C         7.2579363041        6.3352172014        2.3370701764
  C        11.8568397604        0.0864847386        0.8794379661
  C        11.9172513091        2.1567330535       -0.3637370618
  H        13.1823413991        0.2875622827       16.3015848102
  H        11.5640227805        0.8871911775       16.1823316512
  C        12.6741504569        1.9088912702       17.5717867845
  H         6.3676133637        9.1548233712       16.0917820334
  C         6.3052637034        7.6113098595       17.4492451972
  H        14.4763064915        7.1944524388        5.3768035911
  H        14.7540115092        6.9601482008        3.6089140961
  C        15.9537241086        5.6973454783        4.8082584617
  H         7.0297480302        7.3090267335        2.6769107053
  H         7.4915136064        6.5150225879        1.3382039065
  C         6.0313796523        5.4590979862        2.4171841125
  N        11.5779182149       -0.8246278822        1.8915912457
  C        12.1207802526       -0.5774341376       -0.3189402946
  C        12.2822116971        1.4666624789       -1.5401222246
  H        11.6813028742        3.1831733447       -0.3599880897
  H        12.3755045972        2.9434926913       17.3899454881
  H        13.6476681770        1.6898485292       18.1430329932
  H        11.9097216544        1.4710571129       18.1993242975
  S         6.3146336920        6.0147249016       17.8113025196
  C         6.0669694668        8.6017692999       18.4911914838
  H        16.0257051417        4.7303994890        4.2940021156
  H        16.7074175872        6.3666420766        4.3717699661
  C        16.1988775064        5.4624148659        6.3840596954
  H         5.7574611587        5.1273005184        3.4268953994
  H         6.1944084390        4.5390011307        1.7853092877
  C         4.7484876718        6.1186737546        1.9221855816
  S        11.6699853899       -2.3404990358        1.3493356599
  N        12.0336308041       -1.9428043719       -0.2076321858
  C        12.4554476438        0.0198483146       -1.5882218809
  H        12.5541978893        2.0841693183       -2.4323839906
  C         5.9201250199        6.6281190654       19.4971471855
  N         5.8376254629        7.9410514670       19.6619144369
  O         6.0212396665        9.7997453914       18.2680537110
  H        16.1485946610        6.4025042971        6.8964192895
  H        15.4272715449        4.7471160497        6.7472881060
  C        17.5953821137        4.9357644582        6.7818325665
  H         4.7389680955        6.1468482467        0.8185022747
  H         3.9105961879        5.4488853426        2.1155272337
  C         4.4124061771        7.4842615790        2.6411284818
  C        12.8141142628       -0.7260519791       -2.7810838912
  S         5.6170722739        5.6458199288       20.9201918741
  C         5.7237922143        8.5967499692       20.9673152479
  H        17.7914669380        5.2311056520        7.7458365005
  H        17.5830573068        3.8773680736        6.6753481852
  C        18.6759369155        5.6170993102        5.9034406054
  H         5.1997658878        7.7803350626        3.3644450094
  H         3.4676262954        7.4069828240        3.1894060380
  C         4.5125386146        8.7402125739        1.7518394543
  H        12.8262801723       -1.7955894500       -2.6936669160
  C        13.1672532497       -0.3805500734       -4.0460057525
  H         5.0282060808        8.1339526550       21.7272201425
  H         5.2818554554        9.5430664132       20.8568882641
  C         7.0816884520        8.7344672719       21.6038362553
  H        18.3634823547        6.6233193940        5.6863792280
  H        18.6948758511        4.9778902706        5.0195693346
  C        20.1061057658        5.5566147628        6.3664347978
  H         4.8445709443        9.6186567338        2.2944321446
  H         5.2797971359        8.5084880184        0.9679432432
  C         3.2086654735        9.0252504313        1.0433677583
  S        13.5291236829        1.1550074490       -4.7001049509
  C        13.2490816242       -1.5287641521       -5.0139273118
  H         7.7450400423        9.3217772973       20.9695943468
  H         7.4259485422        7.6916838290       21.6707773049
  H         7.0765372403        9.2219495693       22.6140081301
  H        20.3477415255        4.5188647348        6.3314351551
  H        20.7671209441        6.0311686537        5.6156583347
  H        20.4053369590        5.8300508164        7.3877953904
  H         3.3479155928       10.0003729837        0.5293505486
  H         2.8376218714        8.2453209283        0.3309100284
  H         2.5138013592        9.2303577702        1.8975291326
  C        13.9399279078        0.2732089436       -6.1133323408
  N        13.6217488413       -1.0367788326       -6.1651057030
  O        12.9618675823       -2.6789366446       -4.7608311868
  S        14.4750857306        1.0996558357       -7.5545613115
  C        13.9762501549       -1.8403412280       -7.3388427849
  H        14.2807196285       -2.8268347931       -7.0113138781
  H        14.8459174690       -1.4350886723       -7.8362326483
  C        12.8554587700       -1.8514038869       -8.3929249512
  H        11.8274053933       -1.6483843166       -8.0289842206
  H        12.8815321100       -2.7865584548       -8.8142686099
  H        13.1291335020       -1.1288688097       -9.1207898131
