352
 i =    91000, time =    45500.000, E =       100.3206594981
  H        11.7560549084        7.0987733685       32.5893545038
  C        11.4028135958        6.0148731547       32.5342336724
  H        12.3416499788        5.3861746047       32.3147400549
  C        10.4099274811        6.0014906171       31.3827664819
  C        10.7311139228        5.6237540781       33.8701945525
  C        11.0286389934        6.1629475520       29.9821259800
  H         9.8639126117        5.0046869277       31.2355732525
  H         9.5743586727        6.7250853755       31.5929496526
  H        11.3908286603        5.8051216553       34.7080990547
  H         9.7535247380        6.0753392487       34.0086568829
  H        10.4998206318        4.5992018677       33.7103021868
  C         9.9494228726        6.0326744974       28.9659838418
  H        11.6643332768        5.3110930661       29.9028415299
  H        11.6065107477        7.1173938248       29.8653424515
  C        10.4478450137        5.9658389976       27.5224353312
  H         9.4448885767        5.0672931819       29.1846585742
  H         9.2996443955        6.9059416724       29.1353805456
  C         9.4505984636        5.4079256972       26.5179139076
  H        11.3033752711        5.2591881269       27.4951753688
  H        10.9410316970        6.8210272867       27.1945007289
  C         8.3230112315        6.3317773970       26.2601664265
  H         9.7752423606        5.0574298739       25.5258881006
  H         9.1339384280        4.4744288121       26.9288069013
  C         7.0698187142        5.6400187082       25.6490215915
  H         8.0826116606        6.7617073639       27.2423379363
  H         8.6853998306        7.1671759130       25.6583784066
  C         6.6878111732        4.3815972134       26.4128845026
  C         7.4410073836        4.8644636700       24.4385041028
  C         5.7839925689        6.5470631453       25.3926331677
  C         6.8921112199        3.1986212063       25.6618332183
  C         6.2319324484        4.0587401656       27.7567533096
  C         7.3070758427        3.5411440871       24.3702570964
  C         7.9030645021        5.3852841707       23.2144866295
  H         5.9594466428        7.3415787203       24.6819656555
  H         5.5429378561        7.1076071479       26.3627912280
  C         4.5574968252        5.7047408464       24.9256401577
  S         6.7170372896        1.7483338756       26.5156718175
  C         6.2311512711        2.6623408805       27.8908112750
  H         6.0506417203        4.7632512656       28.4416774417
  C         7.7498445678        2.8282855279       23.2731826414
  H         8.1277693145        6.4321350547       23.1995759800
  C         8.1923803393        4.6479606960       22.0481536569
  H         4.7037789988        5.1774530516       23.9551434921
  H         4.4464649530        4.9586857359       25.6747318067
  C         3.3076714374        6.5700724342       24.8381511691
  C         5.9810670324        1.9310116457       29.2254523484
  C         8.0609723121        3.3083558087       21.9833371976
  H         7.8062546045        1.7895109887       23.3327828437
  C         8.5769212728        4.8993235710       20.7271071655
  H         2.6709514251        6.0502298556       24.1230786529
  H         3.5397882349        7.5379399696       24.4034478990
  C         2.4649202188        6.6939989809       26.1407655673
  C         6.0208651093        0.5306092201       29.4387779415
  C         5.4772752896        2.7373157672       30.3595264018
  C         8.4944048721        2.4773895820       20.7692043082
  C         8.6828382037        3.7762424332       19.9251239004
  S         9.1281454659        6.3682876461       19.9667559272
  H         1.6998954720        7.4218174673       25.7144461389
  H         3.0098016914        7.3315062191       26.8589613811
  C         1.7337529014        5.3942712130       26.7112991467
  N         6.3654811156       -0.3812663397       28.4628219903
  C         5.8041317391       -0.0703851892       30.6582461948
  C         5.0061219436        2.0481728692       31.5375639392
  H         5.2457838605        3.7992574987       30.2700038139
  C         7.3905941025        1.5994914147       20.2110728104
  C         9.8012756125        1.8124766901       21.0622802967
  C         9.0955177289        4.1152847544       18.6162587169
  C         9.3320266943        5.4649039096       18.4816098530
  H         0.9227890513        5.1936396104       26.0075206938
  H         2.3367750256        4.5224554595       26.5442144316
  C         1.3854131529        5.4877252659       28.2581678326
  S         6.3940916582       -1.8883743901       29.1352274499
  N         6.0009625117       -1.4388026479       30.6499184635
  C         5.2476670641        0.5968832667       31.7648036704
  H         4.4400735108        2.6714434770       32.2387128525
  H         7.3151664872        0.6498800921       20.6720295583
  H         7.7406028045        1.5199295629       19.1883684463
  C         6.0529192690        2.2955583988       20.0502899767
  H        10.0601588076        1.2768164206       20.1914792333
  H         9.7476072516        1.0719060451       21.8191427840
  C        10.9949304399        2.7055061515       21.4208071735
  H         9.1855582909        3.2734313898       17.9400194287
  C         9.8178150054        6.1341248706       17.2380881750
  H         1.0056577888        4.4779607802       28.5766711290
  H         0.6760909415        6.2811213007       28.3727785839
  C         2.6833340735        5.7797149967       29.1350293916
  C         4.9588276608       -0.0770292560       33.0045010843
  H         6.0320662619        3.1795671096       19.4995738140
  H         5.6378127574        2.6554848834       21.0383523292
  C         5.1279201767        1.2861878396       19.3469509958
  H        10.7519816177        3.5308310537       22.1397402795
  H        11.2945731357        3.1921488836       20.5351395618
  C        12.1677443763        1.8734868634       21.9255902579
  C         9.9507341019        7.5658848026       17.0521530270
  C        10.0295277033        5.3163203086       16.0544227414
  H         3.4557032201        5.1577406760       28.7181943184
  H         2.9420385705        6.8683569402       29.0234365293
  C         2.5148390942        5.5515143163       30.6472307085
  H         5.0616646294       -1.1283396124       33.0044014916
  C         4.6694575135        0.3700783219       34.2564905198
  H         5.1025377664        0.3870127130       19.9635508564
  H         5.5397549851        1.0536141334       18.3454059462
  C         3.6985745428        1.7027574236       19.2926666121
  H        11.7651480449        1.3527690973       22.7717595270
  H        12.6100241857        1.2112736242       21.2130436175
  C        13.3038677072        2.8450075679       22.3612533024
  N         9.6425535869        8.5278811547       17.9794731607
  C        10.3656621536        8.1315827651       15.8848712361
  C        10.5224908893        5.8722271908       14.8969855985
  H         9.8912006221        4.2238672947       16.1039709415
  H         1.6488998864        6.0609675473       30.9967157768
  H         2.4712317989        4.4555309554       30.9194311362
  H         3.3018088311        5.8765733327       31.2642424885
  S         4.2425323655        2.0028413567       34.6609523880
  C         4.6640611578       -0.5806528716       35.4127418358
  H         3.2872901534        1.5902692005       20.2621951416
  H         3.8517530129        2.7193461113       18.9874339478
  C         2.8611001972        0.8281279322       18.2869539565
  H        12.9160795316        3.8269989363       22.6880836745
  H        13.7237372890        3.2072653407       21.4712688319
  C        14.3588903767        2.3001730330       23.3788451612
  S         9.9004869164        9.9944359322       17.4300337795
  N        10.3843329894        9.5095615693       15.9756197881
  C        10.7005226527        7.3499875716       14.7353791625
  H        10.6794680704        5.2089600389       14.0429092804
  C         4.0666529531        1.4213461254       36.2727426511
  N         4.2764444610        0.0727292957       36.5282948395
  O         5.0681252900       -1.7113476759       35.3183428512
  H         3.4247611203        0.4843566436       17.4719014604
  H         2.3356433365        1.6682319605       17.8209430062
  C         1.8070748470       -0.1854924919       18.8014673965
  H        13.8806324633        1.9168346817       24.2618983620
  H        14.9060738357        1.5220991630       22.8682806027
  C        15.3684768693        3.3973578446       23.7218434170
  C        11.0131034233        7.9366163619       13.5386148623
  S         3.7122894946        2.3791546094       37.6382707807
  C         3.9693830541       -0.4240260514       37.8561917500
  H         1.4507253288       -0.0130897331       19.8292067784
  H         0.9982445376       -0.0583646167       18.1362213983
  C         2.5656367051       -1.5420003141       18.7596562029
  H        15.7664358946        3.3639573574       24.7702080897
  H        15.0230074357        4.4166917689       23.7085174427
  C        16.5992195462        3.3951416517       22.7784751493
  H        10.7878024833        8.9622370787       13.6013687260
  C        11.6637949602        7.5996108903       12.4005775378
  H         3.0146131863       -0.0783349210       38.1973636363
  H         3.7249576869       -1.5008424936       37.6535415734
  C         5.1913438531       -0.3866678744       38.7862008999
  H         1.8336156516       -2.2298302810       19.1304290892
  H         3.4588732369       -1.5732018314       19.4935957790
  C         3.0382634916       -1.9902557131       17.3532923924
  H        16.2987580757        3.3484463536       21.7441189877
  H        17.0685556047        4.3578122868       22.7348821611
  C        17.6397389007        2.3113260932       23.0091352657
  S        12.2292383806        6.0817826174       11.9739109244
  C        11.7960975690        8.6536826354       11.3798543473
  H         5.9789467592       -0.0414186496       38.2772379552
  H         4.9512276991        0.3267001190       39.5912063024
  H         5.4388281822       -1.3860434147       39.0988580202
  H         2.5187993746       -2.9483039883       17.2386555944
  H         4.0889466057       -2.1915496416       17.2862991309
  H         2.8719593936       -1.4267707006       16.5313287660
  H        17.9131679648        2.1671305409       23.9901331657
  H        18.5396832025        2.6768909782       22.5833291535
  H        17.4434186652        1.2892077095       22.6975950162
  C        12.6614437474        6.8590188736       10.4368557875
  N        12.4212198120        8.1491061927       10.3452671329
  O        11.3209595249        9.7857830498       11.4637481460
  S        13.4161895503        6.0251342048        9.0397345827
  C        12.5650346717        8.8564091474        9.0579859128
  H        12.8114795950        9.9833594049        9.2956817437
  H        13.4976435518        8.5855074057        8.5212785808
  C        11.2513124337        8.6263759311        8.2974046711
  H        11.2352711295        7.6129322645        7.9396384480
  H        10.3147142897        8.7015034616        8.9181102950
  H        11.1126778443        9.2654674436        7.3959807424
  H         4.7810148406        1.9303692561       12.8939765662
  C         4.0126801911        2.7090108760       12.8824776552
  H         4.6633887063        3.5654629725       12.9832278518
  C         3.0520205843        2.6421041910       11.6852886166
  C         3.2340706873        2.5282841219       14.2563270508
  C         3.8382286847        2.6978049018       10.3514774535
  H         2.2785920089        3.3889455923       11.7840431146
  H         2.5921756054        1.6273289876       11.5760396661
  H         3.3643291907        1.5574384261       14.7523328798
  H         2.1494315355        2.6990465966       14.1834853148
  H         3.6290769673        3.2665583920       14.8987744688
  C         4.6683203670        1.4220450487       10.1312354465
  H         3.1809944928        2.8562355855        9.5144239062
  H         4.5564124729        3.4889621499       10.4897460733
  C         5.3540774713        1.4411645098        8.6966621822
  H         3.8805587182        0.6016481417       10.1288165680
  H         5.3843005662        1.3074310203       10.9429197609
  C         6.6451450526        2.3220130757        8.6713080253
  H         4.7044031160        1.8103268162        7.8577895037
  H         5.7466608088        0.4378058661        8.4622289191
  C         7.9204123666        1.6102881489        9.2076109154
  H         6.8579542791        2.5499867079        7.6411992723
  H         6.4863605861        3.3111740151        9.1329768382
  C         9.1145013785        2.5629091804        9.4569390950
  H         8.2201492802        0.8615929035        8.4746819354
  H         7.7134049943        1.0739385882       10.1920765090
  C         8.7123771550        3.8962746550       10.1256769217
  C         9.5019046162        3.3494518906        8.2503783725
  C        10.2745770456        1.8458995197       10.2287964232
  C         8.9448695109        5.0304971895        9.4170965461
  C         8.2412416310        4.2625010718       11.4403851560
  C         9.3966015674        4.7125576881        8.1370780784
  C        10.0419983701        2.7836097995        7.1000247029
  H         9.6888745158        1.5482943942       11.1470737067
  H        10.5760840141        1.0487713768        9.4904839373
  C        11.4948161258        2.7562813565       10.5839930231
  S         8.5718556764        6.5304033104       10.1509139150
  C         8.2004435281        5.5968502726       11.5935831511
  H         7.9399231548        3.5567103447       12.1561791276
  C         9.7480103205        5.3441958342        6.9545980806
  H        10.1579634672        1.6983547060        7.0805352033
  C        10.3317741339        3.4348156260        5.9425656538
  H        11.1642041842        3.5674917853       11.1722841004
  H        12.0197935648        3.1241019882        9.6400608293
  C        12.5205020316        2.0726035472       11.4909777734
  C         7.6691299717        6.2722668369       12.8427156670
  C        10.2131016605        4.7410708876        5.7599806077
  H         9.4641041367        6.3374808559        6.8057403726
  C        10.7065431929        2.9581515682        4.6637073758
  H        13.4066780109        2.6905081549       11.4526479916
  H        12.7691887246        1.1387230345       11.1363702597
  C        12.0231771883        1.8382276010       12.9406872333
  C         7.7455181553        7.6670370477       13.1202357217
  C         7.0142508231        5.5372612737       14.0181241457
  C        10.5281326033        5.4164928044        4.4577876760
  C        10.7864941542        4.0131383474        3.7641430493
  S        11.0081338135        1.5002943689        3.9195630020
  H        11.0906584648        2.2871872659       13.2038832835
  H        11.9743564814        0.7497426775       13.1272630086
  C        13.0533592943        2.2931519024       13.9216583612
  N         8.2983011101        8.6248350727       12.2328606150
  C         7.4392297373        8.2535214750       14.3446281021
  C         6.7231255051        6.1109667295       15.2448429328
  H         6.7629900575        4.4824326230       13.8323775231
  C        11.8384912810        6.2091954018        4.6078325076
  C         9.3127900618        6.3076663294        3.9469258730
  C        11.2204020174        3.6126237202        2.4360660166
  C        11.3494544467        2.2689977043        2.3668880350
  H        13.4238868972        3.3518926368       13.7014411909
  H        13.8912018525        1.5823156197       13.9670062244
  C        12.3625781595        2.3028330140       15.3299386483
  S         8.1445962005       10.1649295190       12.8613509151
  N         7.6671406443        9.6498139455       14.3905873847
  C         6.9516790601        7.5660798657       15.4655527273
  H         6.3362436292        5.4805509973       16.0600559356
  H        11.6048690384        7.1626169581        5.1889766506
  H        12.2137541616        6.5838774122        3.6423199149
  C        12.9805455162        5.3686784642        5.1908344498
  H         8.8326278638        6.8257245419        4.7273711300
  H         9.7892551250        6.9600121240        3.2269433984
  C         8.1803187544        5.6269230804        3.2492112348
  H        11.3850194997        4.3608002778        1.7074148973
  C        11.7220784399        1.4541750475        1.1684873550
  H        12.1870248737        3.3269912347       15.6189424026
  H        11.3658389805        1.8609085922       15.2669913823
  C        13.1593763991        1.7234087658       16.5016041602
  C         6.7801113656        8.3831343635       16.6344127979
  H        12.6775587081        4.8510022053        6.0916501326
  H        13.2843171736        4.6083602164        4.4522362106
  C        14.1589047141        6.2249459230        5.4544389043
  H         7.7636716652        4.8703997706        3.8600749960
  H         8.5234650505        5.0751564687        2.3974828864
  C         7.1435456485        6.5901928353        2.7472546465
  C        11.7701532614        0.0725425615        1.1064989967
  C        11.9848787051        2.1273978389       -0.1222236096
  H        14.1107822092        2.0234578545       16.3336427169
  H        13.0221872121        0.6341322186       16.5043329385
  C        12.6346833159        2.3121616694       17.8680755911
  H         7.0272651464        9.4189465021       16.5532870660
  C         6.4917326907        8.0768168884       17.9217902743
  H        13.8807457565        6.9571838322        6.2536366392
  H        14.5391896421        6.8744723874        4.6847277410
  C        15.3967563961        5.3303113101        5.8926096394
  H         6.5749469261        7.0976333974        3.5592000615
  H         7.6466302699        7.4050227485        2.2950950597
  C         6.2765993009        5.9566377676        1.6510561749
  N        11.3725966900       -0.8214937085        2.0858421813
  C        12.1023794978       -0.6373459784       -0.0373090435
  C        12.2528923887        1.3862812695       -1.2737820739
  H        12.1030246962        3.1666734518       -0.1157943416
  H        11.7534159274        2.8989770367       17.6716834468
  H        13.3389927299        2.9591559594       18.4055956799
  H        12.3371786498        1.4544629397       18.4902931565
  S         5.9783664390        6.4835511295       18.3976993455
  C         6.5411719057        9.1120009624       18.9758261526
  H        15.2270839741        4.6281876639        6.6092799815
  H        15.6200427566        4.7113259080        5.0493782106
  C        16.7566971022        6.1105663646        6.1311827719
  H         6.0226888273        4.9166118101        2.0788188242
  H         6.8025607624        5.8032527596        0.7129702504
  C         4.9929665618        6.8258434760        1.3319737764
  S        11.6077886471       -2.3220623982        1.6171914229
  N        12.1116391396       -2.0122964377        0.0738506083
  C        12.4214222583       -0.0674839201       -1.2489136765
  H        12.4022295010        1.9455762848       -2.2081258444
  C         5.7785120734        7.2924572364       20.0124684850
  N         6.0157010966        8.6311233357       20.0824456176
  O         6.6566702796       10.2912637695       18.7140022795
  H        17.4404146728        6.0739250111        5.2567684987
  H        16.5324262712        7.1374831262        6.1985986820
  C        17.6593457939        5.7467342168        7.3764697590
  H         4.3629854465        6.2131682115        0.6459242827
  H         4.4672627216        6.8846881991        2.3083188350
  C         5.2204307033        8.0917623457        0.5232384941
  C        12.8037615267       -0.8369252404       -2.4195814834
  S         5.2469479295        6.3532594276       21.3420629682
  C         5.9518331623        9.3930970237       21.3550909350
  H        17.3066264703        6.3233329644        8.2099740662
  H        17.5136093393        4.7792181563        7.7325472028
  C        19.1364979657        6.1336254416        7.1166439449
  H         5.2259727802        7.7411973109       -0.4871386860
  H         6.1557789581        8.4269353815        0.7933930663
  C         4.1248887049        9.1213347445        0.6178773568
  H        12.7994048732       -1.9378299372       -2.3822186346
  C        13.2014139893       -0.4604724502       -3.6929708471
  H         5.0495207702        9.1465061494       21.9071277539
  H         5.7007420110       10.3607658231       21.1145663045
  C         7.3341522949        9.2295497226       22.0546107031
  H        19.6999582596        6.2392854937        8.0732120006
  H        19.2738167370        7.1260947027        6.6039039420
  C        19.8818859630        5.1156371121        6.2964225900
  H         4.0373524545        9.6104203519       -0.3199230123
  H         3.2224907674        8.5602480520        0.7477344527
  C         4.2511499704       10.1562139397        1.8131461166
  S        13.7708028017        1.1131201781       -4.1586090681
  C        13.4604548845       -1.5498636596       -4.7366486794
  H         7.1612425729        8.9376743467       23.0208127375
  H         7.8621321684       10.1863786617       21.9951139809
  H         8.0935103502        8.5539520771       21.5121474756
  H        19.6284291301        4.0391492313        6.4593680369
  H        19.7220918936        5.3526249266        5.2354791966
  H        20.9591124079        5.1733169293        6.3466269087
  H         3.8439289402        9.7764990924        2.8038931682
  H         5.2783314651       10.3581734447        2.0136493641
  H         3.6660992078       11.0718514494        1.6496932659
  C        14.1665669597        0.3983131255       -5.6946946003
  N        13.9012809002       -0.8873195489       -5.8472891372
  O        13.1656662375       -2.7553447486       -4.5955382967
  S        14.8503624970        1.2853374271       -7.0482702588
  C        14.1889366356       -1.5697162325       -7.1619426255
  H        14.4908166217       -2.6003020811       -7.0260557597
  H        15.0105469405       -1.2161788275       -7.7040263328
  C        12.9121261673       -1.6277636660       -8.0002822901
  H        13.0449650084       -2.3593633115       -8.7986037514
  H        12.7705236748       -0.7872682267       -8.5812638540
  H        12.0029647074       -1.8690640957       -7.3966304298
