352
 i =    96400, time =    48200.000, E =        99.2272705626
  H        12.5444424962        5.7249125890       32.6132322749
  C        11.4405091245        5.5478359098       32.7281447360
  H        11.4671502811        4.5319666905       32.6497042806
  C        10.5609794676        6.2998170923       31.6994359165
  C        11.1464453992        5.9410673286       34.1715935965
  C        11.0453385591        5.9017343486       30.3887771854
  H         9.4969629867        5.9733791300       31.9168567886
  H        10.6612530463        7.3552626967       31.9609260116
  H        10.5202687239        6.7529384825       34.3141627632
  H        10.5615682790        5.1361023843       34.6915999064
  H        12.0084058828        6.1061828298       34.8396856502
  C        10.1359778523        6.3199700478       29.2138861055
  H        11.2607805953        4.8330177853       30.4051554449
  H        12.0635143087        6.3419725356       30.2935960333
  C        10.5539878404        6.0823922192       27.7911312886
  H         9.1951752479        5.8624120533       29.3175389728
  H         9.8101451552        7.3435843297       29.2996167409
  C         9.6259688240        5.2318127319       27.0386028510
  H        11.5643476691        5.6713495718       27.9130157394
  H        10.6479893559        6.9976332472       27.2341785620
  C         8.3627173784        5.9447851919       26.5088529303
  H        10.1580079282        4.8414427393       26.2222395822
  H         9.2990482240        4.3917808191       27.6536615303
  C         7.3213585354        5.2668809169       25.6730233506
  H         7.8995599621        6.5070420841       27.3160744798
  H         8.7756395412        6.6884282009       25.8033396149
  C         7.1204668188        3.9237658898       26.3146747695
  C         7.8772944891        4.6289887882       24.4872965205
  C         6.0834089126        6.1689622877       25.3487493158
  C         7.4039714085        2.8639081811       25.5288921963
  C         6.5087810451        3.4781619372       27.5194857897
  C         8.0101161584        3.2831979522       24.3713266621
  C         8.1333190809        5.2604411738       23.2777777896
  H         6.3262094573        7.0548059116       24.7065346888
  H         5.8966745014        6.5855431014       26.3038188292
  C         4.7582426692        5.4739643039       24.8789860728
  S         7.0539049296        1.3265971311       26.1899745001
  C         6.5339477956        2.1330687159       27.6272609091
  H         6.3198176165        4.1690575418       28.3415931183
  C         8.5130907959        2.7003958039       23.2059940709
  H         7.9928604606        6.2948467881       23.2344088336
  C         8.6514556663        4.6659742807       22.1501328230
  H         5.0606838110        4.9645508163       23.9585378005
  H         4.5367605414        4.7933680932       25.6516196717
  C         3.5078024928        6.3985535115       24.7323110488
  C         6.1024979320        1.4441165732       28.8768649134
  C         8.8226791651        3.3220020989       22.0251871540
  H         8.5916090818        1.6178022743       23.0497839193
  C         9.0650272581        5.1344377868       20.8651236882
  H         2.7761816431        6.1021575413       23.9283389304
  H         3.8284701473        7.3922916903       24.4447102343
  C         2.7850298360        6.6439218523       26.0980720565
  C         6.0510467861        0.0346269619       29.0994972937
  C         5.6161058069        2.2413260598       30.0558988335
  C         9.1455691235        2.6358413785       20.7443743673
  C         9.3878069424        4.0475044306       20.0661005263
  S         9.2653158825        6.6999085268       20.1185567154
  H         2.1219948719        7.4860392070       25.9929505258
  H         3.4589159546        6.9134365392       26.9144107321
  C         1.9922303944        5.4307380784       26.5512256744
  N         6.3196128365       -0.9144316963       28.1550131981
  C         5.6509860330       -0.4961889045       30.2727914301
  C         5.4699425762        1.6869273671       31.3004076560
  H         5.5999074632        3.3032049279       30.0532038650
  C         8.0233308873        1.8678413127       20.0068978450
  C        10.4698670450        1.8251661964       20.7300801401
  C         9.7730623186        4.5516608832       18.8096145618
  C         9.7476855085        5.9505110320       18.6723243047
  H         1.2577834241        5.2070303166       25.8037023853
  H         2.6430181733        4.5702402661       26.6011281168
  C         1.2436457527        5.6954409883       27.8210609113
  S         5.8393643090       -2.3336614272       28.7585833224
  N         5.5615278429       -1.8873140003       30.3109656450
  C         5.4111162500        0.2148643845       31.4881282954
  H         5.3585900417        2.3756537508       32.0834217736
  H         7.8475924447        0.9441498819       20.5216727002
  H         8.5319511693        1.6439641899       19.0895447407
  C         6.7496103764        2.6205391879       19.6459985920
  H        10.4439673342        1.3717104457       19.7172870045
  H        10.3283564924        0.8606342187       21.3213903851
  C        11.7465477445        2.6514296410       21.0365891841
  H        10.1575338929        3.8366047785       18.1203126068
  C        10.0386716181        6.6954857197       17.4482216098
  H         0.5003796719        4.8836149842       27.9823393076
  H         0.6583631783        6.5887628328       27.6777353521
  C         2.1097398391        5.5549525929       29.0794901027
  C         5.1510011967       -0.5292479687       32.6742496920
  H         6.8748437601        3.6683878652       19.4039963418
  H         6.1171029751        2.5167572719       20.5394106570
  C         6.1064257709        1.9549599555       18.4899495563
  H        11.6697973934        3.4519960002       21.6966615333
  H        12.0972843993        3.0834660761       20.0886955307
  C        12.9374841351        1.6722807684       21.1908948400
  C        10.0726057965        8.0763843832       17.2425553624
  C        10.1886353280        5.8878170287       16.1750772290
  H         2.5145697194        4.5066703650       29.2104052573
  H         3.0632027562        6.1198562225       29.1835161571
  C         1.3288661669        6.0584305737       30.3381301359
  H         5.3515331960       -1.6082912757       32.7050949040
  C         4.7721111975       -0.0385572178       33.8922241454
  H         5.9139256452        0.9066068295       18.6555866883
  H         6.7832422268        1.9313124550       17.6199670267
  C         4.8301450755        2.7680265789       18.0681258248
  H        12.7947472333        0.9891126272       21.9993728405
  H        12.9890950641        0.9650271178       20.3328757697
  C        14.1960178208        2.5036883853       21.4411328955
  N         9.7491000637        9.0051232361       18.2235016087
  C        10.1308879764        8.7028533586       15.9811859052
  C        10.3881237667        6.5380025337       14.9426007783
  H        10.2977711536        4.7845210118       16.2176218880
  H         1.8064956939        5.7497267142       31.2909924639
  H         1.1421098229        7.1235988158       30.3750057895
  H         0.4066907793        5.5321661087       30.2557352362
  S         4.5991286095        1.5938401326       34.3446275142
  C         4.5606218518       -1.0023093381       34.9907234449
  H         4.1206043287        2.9534783835       18.8612580770
  H         5.0794345858        3.7552216839       17.6473403882
  C         3.9425085897        2.1149494688       16.9349571691
  H        13.9002065455        3.1595943747       22.3285039712
  H        14.4924356330        3.0549427394       20.5682144389
  C        15.3595345342        1.6315633986       21.8693720503
  S         9.7732614552       10.5431556395       17.5659803411
  N        10.1269723913       10.0746219808       16.0629983651
  C        10.4858894071        7.9683663023       14.7826649886
  H        10.5236722053        5.8941924895       14.0625762763
  C         4.2169625460        1.0245827053       36.0008579639
  N         4.2406571695       -0.3517838271       36.1048399664
  O         4.6107187687       -2.2312857602       34.9262690288
  H         4.5599910189        1.4769803150       16.1614403046
  H         3.5951176213        2.9431197159       16.2967136370
  C         2.7456006687        1.3367456566       17.4165727775
  H        15.0082155851        1.0897996205       22.7406171026
  H        15.5101858345        0.8995576576       21.1481732004
  C        16.5739607871        2.4974068018       22.1095668470
  C        10.8383182948        8.7013837743       13.6039381406
  S         3.6619645868        1.9409021856       37.3179809727
  C         3.9914024313       -1.0823098873       37.3805440530
  H         2.7007980808        1.2937505529       18.5219499673
  H         1.8199980112        1.8256163541       16.9798263948
  C         2.5863271898       -0.0567075189       16.8779421674
  H        16.3158683187        3.4674343754       22.4102838912
  H        17.0638070449        2.7197678094       21.1825053669
  C        17.5673048065        1.7671848085       23.0343929736
  H        10.6015369982        9.7552696494       13.7229821858
  C        11.3504331151        8.3175022915       12.4058227190
  H         3.1576154287       -0.6920638904       37.9949382407
  H         3.7952291558       -2.1241036701       37.2171292581
  C         5.2943968340       -0.9956881759       38.2961417070
  H         3.5413519254       -0.5331725230       16.9156627776
  H         2.2790926716        0.0823845370       15.9070169160
  C         1.6969271662       -1.0909548629       17.6393367655
  H        17.4267241487        0.6819875406       22.8490364149
  H        18.6136046768        1.9489199389       22.7040924327
  C        17.2219893051        1.8912164087       24.4917903831
  S        11.7161563246        6.7086069822       11.8469119905
  C        11.5734513794        9.3361086821       11.3619564879
  H         6.1344621877       -1.6398737879       37.9234370216
  H         5.5748443649        0.0363362863       38.5081335869
  H         5.0856956043       -1.4393916577       39.2601959887
  H         2.1670002927       -1.0625097454       18.6552353578
  H         1.9347059918       -2.0513923077       17.2168028807
  H         0.6785200300       -0.7218340790       17.6480473473
  H        17.9042441895        1.3265733079       25.1116815745
  H        16.1816922586        1.5524458226       24.7068608321
  H        17.3329720286        2.8365850006       24.8354216565
  C        12.3080220261        7.3862803361       10.3606096227
  N        12.2033024422        8.7670375601       10.3297521598
  O        11.4595229913       10.5182785593       11.5535576921
  S        12.9366233798        6.4972775141        8.8816130151
  C        12.5214416815        9.5848309031        9.1739634795
  H        12.8009945303       10.5806408103        9.5430809011
  H        13.3469621163        9.0964440686        8.7098359088
  C        11.2727729257        9.7519469417        8.2261235736
  H        11.3429496619       10.6884945467        7.7647050027
  H        11.2657614701        8.9457467900        7.4817461324
  H        10.4162063879        9.5836261762        8.8575546513
  H         4.0667538576        3.2614494641       12.4661265721
  C         3.1322228803        2.8450935403       12.2067474574
  H         2.4351926780        3.6162460867       12.2957689936
  C         2.8922084961        2.2007050163       10.8483830416
  C         2.5844735586        1.8926193040       13.2438876967
  C         3.9664118248        2.5837280706        9.7812348425
  H         1.9236981763        2.6330783654       10.5247079539
  H         2.8361184014        1.1021612644       10.9628759474
  H         3.2907294908        1.1052884622       13.6302427101
  H         1.5651674345        1.5344190338       12.9085230275
  H         2.3710955533        2.4715725458       14.1237927800
  C         4.7362906371        1.3885835228        9.2285500994
  H         3.4380631615        2.9944940924        8.9377207011
  H         4.5877418376        3.4368383850       10.1904079683
  C         5.4973223655        1.6962376516        7.9823731285
  H         4.0988406733        0.6257769360        8.9235409121
  H         5.4027355461        1.0802242349       10.0419355217
  C         6.6962455216        2.6636322064        8.2754287762
  H         4.7962459953        2.1932079563        7.3135780327
  H         5.8258157472        0.7517703511        7.5981047921
  C         7.9061307562        1.9406815981        8.8780199431
  H         7.0572198798        3.1703307206        7.3371100065
  H         6.4178961810        3.4945054469        8.9467078670
  C         9.1335003317        2.8657643485        9.1060914401
  H         8.2586550644        1.2645122280        8.1240696420
  H         7.7215155206        1.1802745848        9.6182378464
  C         8.7422276973        4.2184129187        9.7924059569
  C         9.6073934849        3.5803026176        7.8925664381
  C        10.3709762552        2.2517736646        9.8840528261
  C         9.0704494046        5.2797062803        9.0030240888
  C         8.4081855330        4.6215416032       11.1309143770
  C         9.5639289590        4.8962448723        7.7457680461
  C        10.1967471374        2.9461652578        6.7998351334
  H        10.1151501907        1.7340033719       10.8185945506
  H        10.6522391973        1.3518605275        9.3060682270
  C        11.5274306126        3.2551675072       10.0677131264
  S         8.6063991924        6.8198125727        9.6926721164
  C         8.2370480607        5.9737285377       11.1824085262
  H         8.2576177664        3.8395702599       11.9276993661
  C        10.0295930229        5.5655163389        6.6052789062
  H        10.1366233176        1.9012808875        6.7472270599
  C        10.5896817470        3.5703709788        5.6469702691
  H        11.1852117944        4.0694987536       10.7085784956
  H        11.9810486740        3.7336125463        9.1645761169
  C        12.6994408434        2.6655266447       10.8667767990
  C         7.6996451878        6.6561497182       12.4728944829
  C        10.4703867174        4.8906858741        5.4776511736
  H        10.0075342920        6.6159315156        6.5616834634
  C        10.9919045903        3.1010273620        4.4409046620
  H        13.6089897541        3.0478216883       10.4972483388
  H        12.7280227513        1.5613918865       10.7198988797
  C        12.7361693124        2.9640114093       12.3482883965
  C         7.7373417483        8.0213089909       12.6867982426
  C         7.3053874792        5.8458138297       13.6712509347
  C        10.8888323729        5.5360067334        4.1596824217
  C        11.1465974058        4.1158959333        3.5212102693
  S        11.1767199777        1.4619322581        3.7223813143
  H        13.8250588548        3.1310257742       12.5418547877
  H        12.3019223021        3.9405829782       12.6280572244
  C        12.1094874285        1.7665417067       13.1298483141
  N         8.0740169236        8.9953677515       11.7173546137
  C         7.4345600769        8.5922918115       13.9126756772
  C         6.9331760650        6.3847269423       14.8897714525
  H         7.2390972444        4.7593754744       13.5867531116
  C        12.1709648721        6.4075101138        4.1538082155
  C         9.6760881714        6.1366846275        3.5052308557
  C        11.4396335967        3.5773529350        2.2203285915
  C        11.4159750718        2.1950071752        2.1862620020
  H        12.6894372517        0.8829661898       13.0064441139
  H        11.1415910602        1.5628119788       12.6579135132
  C        11.8051153287        2.0912322007       14.5420560804
  S         8.0602568778       10.4690673034       12.3971898096
  N         7.7365642871        9.9683948876       13.9195031154
  C         7.0076669871        7.8733262656       15.0808783911
  H         6.6138173543        5.7511844178       15.6993273967
  H        12.0324861493        7.3035775727        4.7555341305
  H        12.3313435087        6.7672088122        3.0858960408
  C        13.4139151817        5.6916702139        4.5950043635
  H         9.2716896259        6.9472620371        4.1245035833
  H        10.0674524455        6.5302396887        2.6440842794
  C         8.4982664754        5.1898475878        3.2379472209
  H        11.7213992225        4.2723445073        1.4281766388
  C        11.7321942529        1.3426651778        0.9940639620
  H        11.3328055448        3.1173920166       14.5720421082
  H        10.9930648504        1.5015034358       15.0021527783
  C        13.0149017484        2.2250497085       15.4557164118
  C         6.7649697080        8.6400972851       16.2596890340
  H        13.0587839137        5.0757734853        5.3886690371
  H        13.7233726357        5.0330563386        3.8124340802
  C        14.5726045484        6.5875879366        5.0930107443
  H         8.0647076976        4.7659342947        4.1463596717
  H         8.7884682396        4.3252811142        2.6023310514
  C         7.4118872773        5.9426454304        2.5054616685
  C        11.8481069013       -0.0810928839        0.8941214939
  C        11.8208432555        2.0927699736       -0.2642911213
  H        13.7774878231        2.7966686087       14.9876802861
  H        13.5905888913        1.3682227967       15.4867268194
  C        12.8315010741        2.6931198050       16.9414335031
  H         6.8620539358        9.6936919577       16.1074995978
  C         6.4997772930        8.3831260093       17.6141298078
  H        14.2965287722        7.1955131796        5.9123808719
  H        14.9096763268        7.1559624752        4.2598497650
  C        15.5960184571        5.5448310779        5.5913146015
  H         7.2320102791        6.9285977151        2.9038088615
  H         7.8697827678        6.1372947706        1.6224307806
  C         6.1171662018        5.1023545253        2.3070551868
  N        11.5627227633       -0.9705807405        1.9368535455
  C        12.2278915316       -0.7081952628       -0.2900145800
  C        12.2751335513        1.4850438935       -1.4431873803
  H        11.6834740674        3.1585437451       -0.2919456163
  H        12.0462333159        2.1936102524       17.4393040576
  H        12.5354986579        3.7908000762       16.8919571533
  H        13.6868941788        2.4326627655       17.6087535548
  S         6.2032539947        6.8548144977       18.2388750638
  C         6.3469221130        9.5266979189       18.5337046222
  H        15.0459713064        4.7108098410        6.1019440751
  H        16.0074417594        5.0951074348        4.7459988559
  C        16.7048727093        6.2118009305        6.4459602297
  H         5.9910657423        4.3345883411        3.0845785504
  H         6.2486681872        4.5265194770        1.3123502146
  C         4.8626844992        5.9902702970        2.1663698154
  S        11.7021426665       -2.4757480916        1.3311552869
  N        12.2673297121       -2.0713539302       -0.1672651577
  C        12.4644629291        0.0268398141       -1.4976953430
  H        12.2612495521        2.0645963616       -2.3615431032
  C         6.0541251545        7.6445142224       19.8520667603
  N         6.0524673426        9.0546943073       19.8032064895
  O         6.3400830442       10.7371532375       18.1740502895
  H        17.1273633763        7.1179386748        6.0033305839
  H        16.2052458505        6.4537091607        7.4212707273
  C        17.9066729109        5.2154927721        6.7057217420
  H         3.9455505136        5.3400985526        2.0320379060
  H         4.5240640276        6.5276369023        3.0285593502
  C         4.8830725867        6.8764286511        0.9742012342
  C        12.7574775073       -0.6984832432       -2.6797067666
  S         5.4032691924        6.8470377625       21.3637335222
  C         5.8782955469        9.8496190773       20.9822714306
  H        17.5075236285        4.3737348301        7.2849765082
  H        18.2807105101        4.8623946232        5.7007026373
  C        19.0450722135        5.8513105281        7.5573275078
  H         4.5399094080        6.3038112466        0.1276097072
  H         5.8955252441        7.3596884227        0.7938837985
  C         3.8756009764        8.0549612123        1.1363713924
  H        12.5709459713       -1.7187827014       -2.6088139154
  C        13.1713825739       -0.3145724175       -3.9472041576
  H         5.0297890408        9.3907414881       21.5230148605
  H         5.6128899359       10.8599704424       20.7440781180
  C         7.1560955407        9.8125400571       21.8518766814
  H        19.1631593833        5.3886142977        8.5453049641
  H        18.8143486545        6.8565199773        7.8798855609
  C        20.4234625622        5.7263497026        6.8747770432
  H         3.6558040818        8.4494239888        0.1370172605
  H         2.9259313136        7.7006280779        1.4993863646
  C         4.3193572962        9.2957174805        1.8949471092
  S        13.7766064700        1.2377896257       -4.2856837975
  C        13.3013799942       -1.4107689085       -4.9561529097
  H         7.8955764973       10.2637759167       21.1539353056
  H         7.6404403677        8.8537522441       22.1013469613
  H         7.1835193957       10.5144248505       22.7061670203
  H        20.2592487135        6.1736204687        5.9168002733
  H        21.0958408444        6.4065199769        7.4058830763
  H        20.8294350589        4.7458475181        6.9444481683
  H         3.8294747072       10.1560999242        1.4207439978
  H         4.1472635936        9.2294328523        2.9782535736
  H         5.4446065316        9.4358943775        1.7535737385
  C        14.1514063641        0.4977226183       -5.9104230580
  N        13.8949152095       -0.8394996892       -6.0034566459
  O        12.9949272977       -2.5668963617       -4.8471421010
  S        14.9425970956        1.3820694583       -7.2784693144
  C        14.0708231724       -1.6908016962       -7.1243350683
  H        13.9691416418       -2.7051503297       -6.8807778713
  H        15.0967996773       -1.6337681051       -7.4679894632
  C        12.9798432673       -1.4518278421       -8.1893981030
  H        11.9578969689       -1.3248077406       -7.8490802289
  H        12.9915556027       -2.1982017416       -8.9475165838
  H        13.3222820527       -0.5680534818       -8.7519445237
