352
 i =    55700, time =    27850.000, E =       100.3915205741
  H        10.6613571257        4.2224770318       31.8675632332
  C        10.6464808191        5.2898299248       32.1558804845
  H         9.6211067056        5.5629422049       32.2037176983
  C        11.4180202585        6.2713574979       31.1948630745
  C        11.0242562991        5.3225096209       33.6357677441
  C        11.6903300022        5.4755093211       29.8923209856
  H        10.9599883662        7.2101085469       30.9779622631
  H        12.3433628869        6.4820253798       31.6468497892
  H        10.8523318875        6.3005090826       33.9487095109
  H        10.5918488503        4.6042132722       34.3312922232
  H        12.0587107847        5.0094289589       33.6767323370
  C        10.4636420588        5.4016004149       28.9327142125
  H        12.0525761327        4.4856426754       30.1563189237
  H        12.4418821338        5.9303932997       29.4173341387
  C        10.7539325282        5.4385068415       27.4372576354
  H         9.7320274178        4.6250476701       29.1739938565
  H         9.9587462247        6.2537600388       29.2946533958
  C         9.5841758462        4.7440604399       26.6536211913
  H        11.6783425536        4.9224103827       27.3367816382
  H        10.9654586159        6.4898002846       27.0773415577
  C         8.3191096536        5.5690418307       26.3747521398
  H         9.9090778820        4.3501651582       25.7538972034
  H         9.3323485360        3.9482128455       27.2719276870
  C         7.2240954574        4.7612417337       25.6605137383
  H         7.9115084292        5.8744956253       27.3725351408
  H         8.5501094075        6.4734017797       25.8677146916
  C         6.8781123048        3.4337345665       26.2777101007
  C         7.6290144383        4.0913868706       24.3880663567
  C         5.9730682872        5.6530943525       25.4573811847
  C         7.1522505087        2.3203509238       25.4741908951
  C         6.3166904452        3.0879308361       27.5503517414
  C         7.6335408416        2.7246869118       24.2830608390
  C         8.1087316983        4.7501229203       23.2452708799
  H         6.3076278099        6.5275867168       24.9641639144
  H         5.6299983229        5.7973835819       26.4243968458
  C         4.8263495156        4.9227043174       24.7799107166
  S         6.8250913025        0.8822644210       26.3219728456
  C         6.2597217340        1.7226379415       27.6966184322
  H         6.1121429969        3.9558599597       28.2473549770
  C         8.0563842403        2.0987650449       23.0916797003
  H         8.1800228332        5.8213453664       23.3919023339
  C         8.4779785411        4.1692324054       22.0763156580
  H         5.0627396819        4.6393840637       23.7163004012
  H         4.5180426399        4.0024541600       25.2890436051
  C         3.6869080455        6.0009449937       24.7632574847
  C         5.8108886947        1.0100026270       28.8998140200
  C         8.4132927027        2.8060480874       21.9270415322
  H         7.9104229768        0.9987887990       22.9500201865
  C         8.8679897879        4.5032532505       20.8289990173
  H         2.9055268046        5.7226980115       24.1242672658
  H         4.0960739817        6.8505625231       24.3491737851
  C         3.0024934435        6.2983197582       26.0964163063
  C         5.7401507567       -0.4255110394       29.0851699365
  C         5.4189435579        1.8139318249       30.1147003677
  C         8.8628917794        2.1097958141       20.6665606801
  C         9.0511912091        3.4650338725       19.9549561994
  S         9.3388200896        6.0374190934       20.1676682742
  H         2.4506966976        7.2172423392       25.9870536262
  H         3.8528387934        6.4291909352       26.8187319802
  C         2.1553960427        5.0445207759       26.5900207064
  N         6.0991477564       -1.3422310187       28.0936969208
  C         5.4329054870       -1.0485822073       30.2829686567
  C         5.1748130614        1.1800605793       31.3136117822
  H         5.3391903782        2.8759019447       30.0718555200
  C         7.7450003900        1.3089890316       19.9898433514
  C        10.2063642161        1.3649741061       20.8677330777
  C         9.3514592087        3.8560668681       18.6502850195
  C         9.5672390488        5.2114816843       18.6115531870
  H         1.5220043140        4.7389521198       25.7960230431
  H         2.7681113737        4.1154681336       26.5899135593
  C         1.5021067019        5.3572337231       27.9293483388
  S         6.0060044423       -2.8310625094       28.7161889581
  N         5.4314128658       -2.4220686327       30.1558057353
  C         5.1430170419       -0.3246159712       31.4846591360
  H         5.0106176795        1.8473107737       32.0949951470
  H         7.5121692193        0.6241906124       20.7337535396
  H         8.1479027710        0.7848531142       19.1159545319
  C         6.4854936644        2.1507445651       19.6414095541
  H        10.4201773852        0.6669620048       20.0586200315
  H        10.2770157605        0.7885819240       21.7839280327
  C        11.4668255544        2.3126338526       21.0320424927
  H         9.2564056592        3.0372103896       17.9542261380
  C         9.8239577117        5.9763193046       17.3740529370
  H         0.8977916887        4.5560289842       28.2071099965
  H         0.7833454024        6.1423873848       27.8147653602
  C         2.3827019094        5.7319416160       29.1250906313
  C         4.8314702155       -0.9497854892       32.7432900256
  H         6.6317996367        2.8559192626       18.8946842279
  H         6.0924491361        2.6047466949       20.4961838942
  C         5.3886303559        1.1736290252       19.0610222369
  H        11.2342394313        3.0090548598       21.8596779451
  H        11.6254352584        2.9768060234       20.1373205434
  C        12.7280458400        1.6466249324       21.4735399463
  C         9.9652745392        7.4092109918       17.1887121727
  C         9.9359694525        5.2076163262       16.1215896892
  H         3.1175346088        4.9164986632       29.1760557086
  H         2.8112749245        6.6905787317       28.9409287465
  C         1.6704792006        5.7757446866       30.5560780412
  H         5.0814680382       -1.9784515982       32.7229252389
  C         4.4534553799       -0.4727424279       33.9699561017
  H         5.0759068724        0.6165792531       19.9049784640
  H         5.7985818030        0.4699542099       18.3940315031
  C         4.2677687733        1.8802279302       18.3152555742
  H        12.5465491229        1.4498208590       22.5213892402
  H        12.8505249844        0.7929186083       20.8682018500
  C        14.0113183250        2.4798458607       21.3721627173
  N         9.6769282864        8.3340195657       18.2005499621
  C        10.1705621594        7.9901690376       15.9250079577
  C        10.1093189199        5.8558089839       14.8329718176
  H         9.8382099174        4.1863693111       16.1909041374
  H         2.3868513199        5.8974730938       31.3765750565
  H         0.9730251136        6.6783721202       30.5454201765
  H         1.0523704770        4.9071625032       30.7235107228
  S         4.1028454137        1.2390122114       34.3736805625
  C         4.4529516866       -1.3901879542       35.1032286914
  H         4.1217867156        2.9135855214       18.6991447258
  H         4.6052351669        2.1070078846       17.3307174899
  C         3.0001565284        0.9821225958       18.3229331102
  H        14.0534626336        3.4919035490       21.8397617934
  H        14.1925014346        2.5757412294       20.3122263364
  C        15.1891296908        1.6350777120       21.8848793687
  S         9.8765978328        9.8068729692       17.5285995342
  N        10.4099051103        9.3561161499       16.0764464526
  C        10.3555875601        7.2645296593       14.7269707667
  H        10.1368280582        5.2627261970       13.9485214620
  C         3.8560468983        0.5750506820       36.0153929337
  N         4.1424234784       -0.7771064060       36.2282490798
  O         4.8175482836       -2.6102823967       34.9935667288
  H         2.0659753747        1.5522789973       18.1399347374
  H         2.8879404378        0.6214175191       19.3342809265
  C         3.0740848147       -0.1721603215       17.3735928371
  H        14.9783371248        1.1734473182       22.8488645915
  H        15.3781534617        0.7216753986       21.3153603324
  C        16.4278798094        2.4449068243       21.9804650522
  C        10.7773516168        8.0098473697       13.5621025916
  S         3.4535428092        1.5599040911       37.4243464586
  C         4.0670251145       -1.3868060689       37.5385551880
  H         3.2629422926        0.1117207858       16.2713460412
  H         4.0091136524       -0.6338060787       17.5389667865
  C         2.0018645457       -1.1625127354       17.6836550625
  H        16.2973512249        3.4195381274       22.4443661078
  H        16.7715809701        2.5674535102       20.9454258957
  C        17.5321918426        1.7007452518       22.5927716607
  H        10.7107261720        9.1133165713       13.6550869116
  C        11.2840424156        7.6413679241       12.3341453303
  H         3.3731643208       -0.8751287079       38.2502223568
  H         3.5275685239       -2.3172339534       37.4380076280
  C         5.5074407080       -1.5363826906       38.1685391562
  H         1.1444915760       -0.6125683838       17.3716798378
  H         1.9094702442       -1.5260426273       18.6099215166
  C         2.1390890261       -2.4860680084       16.9131120600
  H        17.5983341572        0.6748255870       22.2059672964
  H        18.4431591127        2.2536802575       22.3411488542
  C        17.3385653106        1.6196501846       24.1286510464
  S        11.6780681085        6.0949890565       11.9343755380
  C        11.5912476990        8.7067712650       11.3569376638
  H         5.5851625131       -1.9900833421       39.1351916403
  H         6.0185217220       -2.1815275413       37.5445445003
  H         6.0385319347       -0.5703618386       37.9887313595
  H         1.2427594427       -3.0668751113       17.0816963749
  H         3.0046163362       -3.1319518114       17.1473730388
  H         2.1671185957       -2.2011663414       15.8758710402
  H        18.2329605343        1.9088153198       24.7864277362
  H        17.0039659531        0.6182007013       24.4219829867
  H        16.6115142007        2.4061244160       24.3768079406
  C        12.0897285606        6.7429336212       10.2897930173
  N        12.0054566347        8.1407192684       10.2169210808
  O        11.2553260880        9.9042237435       11.4993938436
  S        12.5910488281        5.7422307232        9.0174324000
  C        12.1249075992        8.9424270795        8.9946020637
  H        12.1582321254       10.0060298821        9.2542246511
  H        13.0305593482        8.8007104227        8.3821592313
  C        10.9214358272        8.8573836348        8.2118858818
  H        11.1530277914        8.6319000326        7.1631124719
  H        10.2261745508        8.1050978517        8.5279688733
  H        10.3408284533        9.8383598587        8.2062463155
  H         4.3191110058        1.3227237937       12.3328653002
  C         3.4489161265        1.9325429027       12.2927910493
  H         3.8455000493        2.9604914937       12.3929864141
  C         2.6750786108        1.7342417972       10.9510344536
  C         2.7555165604        1.5650535766       13.6206595354
  C         3.3943941253        2.1859054660        9.6506387237
  H         1.8554801270        2.4661142615       11.0846630656
  H         2.2387881945        0.8146140217       10.8705567923
  H         1.9485164017        2.3225608366       13.8018582785
  H         3.4951676421        1.6142448450       14.4819100505
  H         2.2957706566        0.5963198923       13.6903772581
  C         4.2366879799        0.9760768818        9.1208053789
  H         2.6027961746        2.4216849471        8.9665831298
  H         4.0224274988        3.0999440235        9.9375974720
  C         5.0545515016        1.3885530819        7.8981304911
  H         3.4646181605        0.2559927293        8.7775869613
  H         4.8256352661        0.6331688145        9.9734162410
  C         6.3259941663        2.1539796363        8.2053556037
  H         4.4599512765        1.9988460700        7.2077222987
  H         5.3793356286        0.6129807375        7.2644573076
  C         7.4713043167        1.3970769320        8.8116145079
  H         6.6736890662        2.5055141261        7.2108778755
  H         5.9345627903        2.9806128909        8.8183884463
  C         8.7618427427        2.2580115593        8.9562086508
  H         7.8024546830        0.6081920235        8.1455624149
  H         7.2765028173        0.7592998897        9.7641398393
  C         8.3920652955        3.5373695405        9.7237754726
  C         9.1109703233        2.9696350534        7.6865749184
  C        10.0013766837        1.5758275453        9.6256941286
  C         8.5774055449        4.6571894837        8.9277229423
  C         8.0389945435        3.8930171337       11.0689350516
  C         9.0497578757        4.2677700378        7.6504872454
  C         9.5560596822        2.3788976782        6.4616486003
  H         9.8046339113        0.9969763833       10.4647147557
  H        10.5200984085        0.7980865276        8.9364012306
  C        11.1123132243        2.5882840773       10.0399820337
  S         8.2950022999        6.1256832147        9.7563976380
  C         7.8130250233        5.2122872284       11.2356900675
  H         7.9003302544        3.1163416728       11.7487986830
  C         9.4854754493        5.0026065847        6.5135660119
  H         9.7376604538        1.3303699922        6.4033958808
  C         9.9994784132        3.1052776510        5.3799875506
  H        10.8165944887        3.5213744085       10.4174251418
  H        11.5993832271        2.9800505028        9.2045865501
  C        12.0790349061        2.0692040130       11.0265552221
  C         7.3888305082        5.9147799751       12.4950024318
  C        10.0358611959        4.4074154080        5.3449762105
  H         9.5027272732        6.0672354777        6.5425277232
  C        10.5161992255        2.7150346327        4.1399879383
  H        13.0028931813        2.6571837084       10.9935583423
  H        12.5158277517        1.0604610823       10.8273271572
  C        11.5612757248        2.0685768110       12.5257822745
  C         7.4779739807        7.3254502591       12.6939335882
  C         6.9525624260        5.1292479849       13.6332062681
  C        10.5334754902        5.1453103274        4.2154352096
  C        10.7962551491        3.8401898595        3.4029773034
  S        10.8234336812        1.1964746665        3.4532249564
  H        11.2209462305        3.0913217336       12.6446547554
  H        10.6775275702        1.3671797201       12.7438033340
  C        12.7121511870        1.8723379995       13.5549274193
  N         7.8658670522        8.2977907808       11.7322367345
  C         7.1722243903        7.9603086477       13.9080367160
  C         6.7067540246        5.7414538593       14.8327380558
  H         6.6268774161        4.1265036511       13.4212638618
  C        11.8015393376        6.0269611509        4.3855740174
  C         9.4427599965        6.1006779580        3.5148457578
  C        11.2681683585        3.4305821536        2.1804572920
  C        11.2982964910        2.0759853746        1.9821607931
  H        13.3217377065        2.7345810760       13.6834507603
  H        13.3151641990        1.0981378320       13.2425104156
  C        12.0496299885        1.5350024496       14.9028956319
  S         7.8524900556        9.7978788107       12.4311714243
  N         7.4453365845        9.3334176314       13.9414712610
  C         6.8469932897        7.2065847158       15.0488825023
  H         6.4483840850        5.1496968709       15.6898798240
  H        11.6786918044        7.0676198067        4.8679777013
  H        11.9966454494        6.2734768620        3.2934944576
  C        13.0718272487        5.3410271487        4.9631988017
  H         9.2235114496        6.9675829241        4.2130140338
  H         9.8458242792        6.4498810251        2.5737591777
  C         8.1224205313        5.3740472375        3.1529763943
  H        11.5469102301        4.2501422829        1.4669106769
  C        11.6680679588        1.3245701772        0.7424682525
  H        11.2020683266        2.1979713587       15.2118464643
  H        11.5824657231        0.5490330477       14.9283373493
  C        13.0046246235        1.6445378856       16.1312104342
  C         6.7291436471        7.9262237436       16.2738932948
  H        12.7700097206        4.7912062607        5.8478527848
  H        13.3898385107        4.6419641390        4.1583189204
  C        14.2318056041        6.2712111360        5.1814084784
  H         7.5453320350        5.1462669816        4.0791921773
  H         8.2850395958        4.3974213371        2.6376645226
  C         7.3805909516        6.2449109762        2.2002111185
  C        11.7592169820       -0.1144941877        0.5343110073
  C        11.9078471811        2.1311635540       -0.4497163695
  H        13.8536987357        2.2235061137       15.6636618231
  H        13.3918861009        0.6554142937       16.4442620200
  C        12.3753474161        2.2997160991       17.3631654817
  H         6.8770944115        8.9598987094       16.1484680039
  C         6.4983920922        7.5360574551       17.5901271252
  H        13.8845730938        6.8423379529        5.9862336563
  H        14.3442716290        7.0115312749        4.3667985978
  C        15.6395433108        5.6977393362        5.6449646723
  H         7.6304922966        7.2640061041        2.5441630186
  H         7.8238712056        6.0634632645        1.2185962374
  C         5.8469678164        6.1385954395        2.1983418245
  N        11.5829415273       -1.0480607715        1.5184010464
  C        12.0869118010       -0.7057373699       -0.6670107452
  C        12.2362087289        1.5062680126       -1.6382065941
  H        11.8362718721        3.2205762566       -0.4368625867
  H        12.1773029993        3.3374118007       17.0937516620
  H        12.9034191662        2.1987398622       18.2775914326
  H        11.3843102798        1.8576189271       17.5176057584
  S         6.2759667524        5.9936461363       18.1647512599
  C         6.4461596313        8.6322593159       18.6526132040
  H        15.7504062880        4.7247804181        5.0663106088
  H        16.3926948289        6.4007785516        5.2715267378
  C        15.7069653219        5.4323631708        7.1298527686
  H         5.6084284486        6.3565748678        3.1797617380
  H         5.5951321181        5.1342145821        1.8471649855
  C         5.2480085521        7.1572255489        1.3015072130
  S        11.8523163160       -2.5254417422        0.9269973158
  N        12.1334475355       -2.0912999991       -0.6123940333
  C        12.3328501957        0.0368619258       -1.8111205410
  H        12.1752718706        2.1211816911       -2.4802582898
  C         6.0102442193        6.7529345978       19.7789842890
  N         6.0751992854        8.1186010818       19.8293105086
  O         6.1686880062        9.7689501121       18.2600803601
  H        15.7984394012        6.4051094145        7.6866001437
  H        14.7798276131        4.9618937193        7.4323733693
  C        16.9118693628        4.5066084506        7.4948347193
  H         6.1034290998        7.7496154762        1.0410921860
  H         4.8544632250        6.7968350299        0.3054175932
  C         4.2412997390        8.0157110949        2.0027377510
  C        12.6892981407       -0.6677998496       -2.9463046677
  S         5.3493775404        5.9549304310       21.2726025732
  C         6.1156750239        8.9180068304       21.0076126398
  H        16.5075877274        4.0373826013        8.4300048554
  H        16.9273760144        3.6051473828        6.8419999002
  C        18.1786328914        5.2173278841        7.7964366090
  H         4.3474952259        8.0013733061        3.0647546707
  H         3.1649329702        7.6957209529        1.9097237978
  C         4.3484073197        9.5409009757        1.6110002858
  H        12.8593514050       -1.7080031032       -2.8007642306
  C        13.1990755143       -0.2094256337       -4.1532864213
  H         5.2879119706        8.6123987586       21.6717655730
  H         6.0318599865        9.9391755320       20.8829315125
  C         7.5247349217        8.7503493719       21.6420880246
  H        18.6059478589        4.5877458324        8.6014389670
  H        18.0092650264        6.1741867020        8.1867811807
  C        19.2126555544        5.2294841882        6.6437616167
  H         3.8291710683       10.1202924734        2.2997131690
  H         5.4026986893        9.7979926959        1.6773665937
  C         3.8128013756        9.8226593555        0.1150167236
  S        13.4304914057        1.3965162474       -4.6270489447
  C        13.5586626242       -1.2323000370       -5.1459955291
  H         8.2322241911        8.4459479130       20.9051694052
  H         7.4835440949        8.0887398941       22.5118632849
  H         7.8562204777        9.7047620638       21.9540511078
  H        19.8912192304        4.4382590086        6.7849864098
  H        18.7077037456        5.2282902591        5.6345114298
  H        19.7704936194        6.1841686718        6.7377350279
  H         4.3116465081       10.6979767268       -0.2073334106
  H         4.1846055022        8.9934446236       -0.5011829953
  H         2.7175245894        9.7982138227        0.1079277978
  C        14.0094934535        0.7615955064       -6.2020842980
  N        14.0503756130       -0.5938054501       -6.2410500861
  O        13.1723088719       -2.4366082626       -5.0408744390
  S        14.9851631276        1.7160371846       -7.3574728561
  C        14.2905018172       -1.3539911276       -7.4062998066
  H        14.3964186227       -2.3648376501       -7.0758153944
  H        15.1900505597       -0.9616855973       -7.8850569133
  C        13.1730064974       -1.4133647959       -8.3977075833
  H        12.1706481504       -1.1396217244       -7.8617405204
  H        13.1518631567       -2.3236029381       -9.0281739510
  H        13.3055564947       -0.6478078222       -9.1496973054
