352
 i =     7400, time =     3700.000, E =       161.5194510011
  H        12.1295829061        5.8854767684       31.9499882884
  C        11.0752856994        5.6438484647       32.2996693993
  H        11.1889238076        4.5719558195       32.5021387328
  C         9.9050743766        5.9495543432       31.3123538105
  C        10.9928354043        6.4328017762       33.5662547453
  C        10.2349407177        5.4173788979       29.8906260745
  H         8.8910269324        5.5534464590       31.6580957490
  H         9.7762907614        7.0459836713       31.3068131464
  H        11.6223637380        7.3136554182       33.5703680350
  H         9.9224537095        6.6412814967       33.8752595029
  H        11.5245271490        5.9243217648       34.3553062652
  C         9.8732389960        6.4456072920       28.7904992420
  H         9.6337315481        4.4949112951       29.8471139090
  H        11.2390943068        5.0701604169       29.9025328735
  C        10.4959219722        6.1136173522       27.4312840711
  H         8.8273618015        6.4834119685       28.5869643534
  H        10.0704322057        7.4746089414       29.1814932469
  C         9.6740510343        5.1802022725       26.5704627903
  H        11.4667136152        5.7537544334       27.4802973344
  H        10.5863045448        6.9675011788       26.7721310254
  C         8.5328916489        5.9513114939       25.8186522640
  H        10.3334539107        4.6375792846       25.8846968037
  H         9.2113845337        4.4508863769       27.2616148947
  C         7.4456652139        5.1456478707       25.0913462856
  H         8.0210929793        6.4985935485       26.6207906758
  H         9.0067503008        6.6285778259       25.1313507954
  C         7.1812695239        3.8514794857       25.7803866494
  C         7.9042090969        4.3176074994       23.8985222806
  C         6.2835208170        6.0485263958       24.5592881098
  C         7.4257653696        2.7050982538       25.0787297579
  C         6.6754808740        3.5525746220       27.0855030857
  C         7.9806573063        2.9435046528       23.8461178745
  C         8.4513541078        4.8939038880       22.7525411366
  H         6.6638863802        6.4729606414       23.6078439563
  H         5.9610875959        6.8692350506       25.2532639321
  C         4.9857316262        5.2656920788       24.1854284798
  S         6.9736511222        1.2343475845       25.8509905868
  C         6.5225020778        2.1394476973       27.2913760420
  H         6.4496980591        4.3414410852       27.8040895605
  C         8.3635740005        2.3034061523       22.6980593977
  H         8.7590985291        5.9566078543       22.8329989362
  C         8.9102181408        4.2470460286       21.6294469572
  H         5.1901142354        4.7977335117       23.2543331280
  H         4.8732430501        4.5542551731       24.9496037405
  C         3.6737230744        6.0872001123       24.0044484358
  C         6.1165593326        1.4693104136       28.5761536484
  C         8.9427824976        2.8888241257       21.5855407339
  H         8.1122687987        1.2093783805       22.5810155147
  C         9.4021750684        4.6503884863       20.4267262609
  H         2.9960151759        5.4271590144       23.3153816751
  H         3.8579184086        6.8882195987       23.2306661593
  C         3.0390486547        6.5852096159       25.3540441744
  C         6.2904910033        0.0549554793       28.8483401300
  C         5.7519498381        2.2993837589       29.7885700513
  C         9.3316665585        2.1618369175       20.2456013638
  C         9.6032853880        3.5631623324       19.5726695964
  S         9.6958156017        6.1432245195       19.7604811913
  H         2.0429353366        7.0113899003       25.0312978649
  H         3.8624188161        7.2364568958       25.8178626354
  C         2.7859430475        5.4941949575       26.3604533335
  N         6.5375251358       -0.8644392466       27.9052071468
  C         5.9786433803       -0.4552386981       30.0776209068
  C         5.4883432919        1.7803274891       31.0539175915
  H         5.6427417147        3.3061442190       29.5628742309
  C         8.2030466551        1.3963468114       19.5549457291
  C        10.5657367690        1.4785540240       20.4500095941
  C        10.0188364266        3.9734852137       18.2888651413
  C         9.9021713553        5.3385803370       18.3166151503
  H         2.6658355179        4.5984594905       25.8313560025
  H         3.7037149011        5.4099002992       26.9947267482
  C         1.6504945077        5.8972027546       27.3070258049
  S         6.6132835629       -2.3086324987       28.5792528095
  N         6.1369746445       -1.8313482940       30.1079014486
  C         5.4917513662        0.2965060173       31.2176450880
  H         5.1421564910        2.2876416047       31.8945332280
  H         7.7367524790        0.7271297530       20.2606528744
  H         8.8247890674        0.8051827858       18.9311317330
  C         7.1345171568        2.2663564647       18.8941272092
  H        10.8126475149        1.4037151497       19.3369617748
  H        10.3464078817        0.5376025120       20.7995291735
  C        11.7780374201        2.1194993771       21.1702526115
  H        10.2319796575        3.2078135181       17.6047678348
  C         9.9689290516        6.1091700555       16.9935877353
  H         0.7042384681        6.1016623231       26.8502652558
  H         1.8833785311        6.7832553247       27.9615396000
  C         1.4839386697        4.7170330755       28.3581498652
  C         5.1788938204       -0.4126416373       32.4413479940
  H         7.6268017992        2.7021235628       18.0709353730
  H         6.7619918749        3.1610111235       19.4909292791
  C         6.0059900584        1.2863032221       18.4533205900
  H        11.3265519002        2.1075604846       22.1469518280
  H        12.0240333586        3.1494137100       20.8843809308
  C        13.0228844978        1.3624502702       20.9617884256
  C        10.1673289692        7.5384357582       16.9197821874
  C        10.1300880613        5.4197739922       15.6833077566
  H         1.3000219923        3.7136171434       27.9142384064
  H         2.5412841478        4.5998206649       28.4684698253
  C         0.5996300911        5.0414860992       29.6730854477
  H         5.4181595364       -1.5049010404       32.3367805247
  C         4.8404088970       -0.0333182902       33.6890113051
  H         5.5972019772        0.8905445428       19.3387398454
  H         6.5135403309        0.3834445032       18.1058164192
  C         5.1348277372        1.6229196042       17.2217530084
  H        12.9385390266        0.4845861423       21.5465270790
  H        13.2125205894        1.0609100339       19.9297582117
  C        14.3110860417        2.2072125510       21.2690441481
  N         9.9718299969        8.4672023287       17.9725891276
  C        10.3520865227        8.2136861682       15.7489522260
  C        10.4400326609        6.1435215032       14.5520930846
  H        10.0652856788        4.3690461056       15.6185391914
  H        -0.3015508687        4.3766531138       29.9250281867
  H         1.2716507640        5.0752067850       30.6090811990
  H         0.2381166601        6.1074453268       29.6233556605
  S         4.3930662584        1.5262017492       34.2212482918
  C         4.8146203985       -1.0855302469       34.7330940558
  H         5.2167776951        2.6863574371       17.1209031685
  H         5.4029873700        1.2357141824       16.2979823094
  C         3.6414086883        1.3820334323       17.4374118231
  H        14.5963678030        2.8457762834       20.5175153892
  H        15.2472021207        1.6019412557       21.2267004368
  C        14.3096986506        2.8052101126       22.6099022893
  S        10.0132669397        9.9399570747       17.3709437228
  N        10.2259426070        9.5997984521       15.8597531971
  C        10.6111323393        7.5888938986       14.4772944204
  H        10.4557315278        5.7153591699       13.4521979276
  C         4.0680975168        0.8038576204       35.7753002504
  N         4.5250293751       -0.5052712833       35.8962842865
  O         5.1972277985       -2.2013230186       34.5328820011
  H         3.1718900434        2.0664133593       16.7562145985
  H         3.4037444902        1.6905323785       18.4489622051
  C         3.2133521299        0.0132483962       17.0313543032
  H        13.6132362828        3.6621539849       22.5603173487
  H        13.7629894793        2.1805193628       23.2981684834
  C        15.6940125099        3.3991148249       22.9793336525
  C        10.8630781734        8.4820167592       13.3502120217
  S         3.7189200449        1.7025414168       37.2317335949
  C         4.5382072781       -1.2083281618       37.2312526239
  H         2.4536233716        0.1796158500       16.3031581494
  H         4.0544509364       -0.4799235464       16.5574838593
  C         2.7902272436       -0.9249402539       18.1517051331
  H        15.4888501412        4.1850194661       23.6436381555
  H        16.3251832200        3.8406041024       22.1661167992
  C        16.4992653806        2.3971206832       23.8229745330
  H        10.7582707550        9.5854551493       13.4872256686
  C        11.3141320279        8.1144803747       12.0435480882
  H         4.1631641523       -0.7006440254       38.1212015765
  H         3.7825152095       -1.9953263579       37.0064320595
  C         5.9504549810       -1.7961854571       37.4717713207
  H         3.3303591193       -0.7853633126       19.1199512982
  H         3.1166997164       -1.9409568933       17.9580012659
  C         1.2982244040       -0.7896611848       18.4214505410
  H        16.7809864040        2.7107526237       24.8593167242
  H        15.9836511547        1.4222247412       23.7279166548
  C        17.8779953378        2.1265237920       23.1578902037
  S        11.8418035746        6.5406175169       11.5886989251
  C        11.4848665182        9.2039840720       11.1107326572
  H         6.6245398094       -1.1613336956       36.9853742443
  H         6.2521300926       -1.8008353423       38.4812939176
  H         5.9913119148       -2.9066806970       37.0941917079
  H         0.9966478497       -1.6585466099       18.9669815018
  H         0.6254720014       -0.7410161710       17.5963766020
  H         1.0958493498        0.1469977864       18.9585132476
  H        18.4274261882        3.0177090834       22.8700257919
  H        17.7824258088        1.4790038450       22.2877529269
  H        18.4721056530        1.6330736843       23.9269186108
  C        12.3400794715        7.3844218394       10.1355500955
  N        12.1254502374        8.7140203590       10.0605831007
  O        11.0935821510       10.2584145656       11.3198493020
  S        13.1527345173        6.5562357965        8.8196440150
  C        12.2300681446        9.4696265802        8.8442577576
  H        12.4920198448       10.5608408530        9.0040584592
  H        12.9892090816        9.0446552308        8.2726180328
  C        10.9907780025        9.4244654942        7.9123577639
  H        11.2597396954        8.9149429888        6.9762030299
  H        10.1895517004        9.0146829747        8.3642671872
  H        10.8340056207       10.4586945513        7.6156903910
  H         4.3928008362        1.1308309476       12.7775725460
  C         4.1034668609        2.1438171178       12.6025655770
  H         4.9749073108        2.7909583490       12.7231551355
  C         3.3764026163        2.1305456194       11.2600759304
  C         3.0898359527        2.5005129250       13.7285165314
  C         4.3089499413        2.6921637695       10.1398237215
  H         2.5088139068        2.6726128213       11.3009430288
  H         3.2114986247        1.1080487371       11.0045261280
  H         2.3324224094        1.8187910660       13.9048970667
  H         2.5270917390        3.3810707410       13.4483940770
  H         3.5442427621        2.7454631480       14.6533593283
  C         4.8022411325        1.5355793673        9.2162754819
  H         3.8013605682        3.5123919645        9.7089774542
  H         5.1773458410        3.2623559329       10.4493245363
  C         5.5430046898        1.8230623730        7.8403996376
  H         3.9527252632        0.9540583405        8.9839749883
  H         5.4840960741        0.9043940147        9.7268026798
  C         6.7649162789        2.7193716143        8.0950949250
  H         4.8905623237        2.3593366727        7.1246887536
  H         5.8834832193        0.8456762076        7.4127977828
  C         7.8628144066        2.0588805804        8.8106383365
  H         7.0668136026        3.0883787603        7.0845942985
  H         6.4285495627        3.5479663673        8.5919071076
  C         9.1005601948        3.0318534959        8.8933922935
  H         8.2704450528        1.2351396225        8.2441830265
  H         7.5624303295        1.8423291865        9.8322387159
  C         8.7005080751        4.3207198801        9.6591342741
  C         9.5356976694        3.7235980647        7.6932906513
  C        10.2569623924        2.2832843478        9.6932375249
  C         8.8178940792        5.4175923449        8.8289865772
  C         8.0062255480        4.6025298072       10.8261883302
  C         9.4296570737        5.0779481103        7.6171877429
  C         9.9805451359        3.1458274324        6.5190675874
  H         9.9187196222        2.1535689675       10.6522559692
  H        10.4562621162        1.2393926943        9.3101938598
  C        11.5243153986        3.0759391602        9.8472827698
  S         8.1880803292        6.9050941079        9.4428663802
  C         7.8801609023        5.9971320426       10.9482251123
  H         7.6138170679        3.8429956380       11.4434300102
  C         9.8008901792        5.7585468715        6.4802841000
  H        10.0338505164        2.0881572922        6.5198236482
  C        10.2298474541        3.7790981517        5.3518947375
  H        11.2673758806        4.1181316824        9.9276834463
  H        12.0385538238        3.0463499563        8.9308780165
  C        12.6036641235        2.6562052971       10.9115092489
  C         7.5197884315        6.6625019946       12.2307091757
  C        10.2488603673        5.1459657518        5.3005795908
  H         9.6866432501        6.8498137978        6.5386257346
  C        10.5623261485        3.4171171647        4.0650602201
  H        13.4973102548        3.2847040423       10.8388011549
  H        13.0275637718        1.6553006312       10.7592960404
  C        11.9963687312        2.8601485891       12.3023724167
  C         7.6635728723        8.0543567130       12.4084722102
  C         7.1527010595        5.8535572289       13.4386628568
  C        10.6768563712        5.8399232959        4.0079926565
  C        10.8967409687        4.4703363046        3.3010601354
  S        10.8411436341        1.8967321955        3.3777031909
  H        11.8532068798        3.9572488364       12.3621285315
  H        11.0012335701        2.3032656569       12.4722794586
  C        12.9703700970        2.3557025494       13.3434690809
  N         8.0128039559        9.0382987323       11.4554235313
  C         7.4374866632        8.5679156241       13.7244900167
  C         6.9313588994        6.3889887986       14.6936043611
  H         6.9424522085        4.7578842324       13.3452442148
  C        12.0887252387        6.4932272673        4.1559930582
  C         9.6191957008        6.7198808514        3.3446425485
  C        11.4085711932        4.0737996180        2.0623455788
  C        11.3357605454        2.6784268326        1.8720967714
  H        13.9939195665        2.7707320232       13.3864427063
  H        12.9419949574        1.3093987956       13.1327905413
  C        12.4980132115        2.2954781819       14.8550599932
  S         7.8278441735       10.5253684965       12.1818237948
  N         7.5610784104        9.9597459310       13.7253336163
  C         7.1848923044        7.8348069162       14.8762062254
  H         6.4238267080        5.8076579293       15.4389567941
  H        11.9430048579        7.4395717497        4.6638911561
  H        12.4630662839        6.6982915738        3.1915837954
  C        13.0968033814        5.8051707893        5.0620056595
  H         9.3517671006        7.5023714393        3.9104825128
  H        10.0116636800        7.1971828192        2.3763355546
  C         8.3038010540        5.8401724364        3.0078192206
  H        11.6859680982        4.8317667267        1.3405202571
  C        11.6455683022        2.0129880631        0.6102546313
  H        12.2749470337        3.2950860696       15.0233214410
  H        11.6068103563        1.7078358308       15.0133647033
  C        13.5575923455        1.7998985328       15.8355943524
  C         7.0145935350        8.5259949568       16.1214632853
  H        12.7755143782        5.7673280497        6.1327065356
  H        13.1018342847        4.8108895038        4.6652886904
  C        14.4828905454        6.4838118946        4.9190960155
  H         7.9622136763        5.3532284085        3.8787386633
  H         8.5747880665        4.9662916201        2.3063186634
  C         7.2389472730        6.5869910108        2.3258089546
  C        11.6586350414        0.5515920360        0.5071707904
  C        11.8186980524        2.7689452456       -0.6361533510
  H        14.5048078761        2.3627729014       15.6385658852
  H        13.6895480558        0.7182115356       15.7001693023
  C        13.2308409190        2.1763849148       17.2516541208
  H         7.3675519444        9.5902521445       16.1590843404
  C         6.6947532238        8.0712325695       17.3934579546
  H        14.8171476526        6.8651487500        5.8649495856
  H        14.4845291506        7.3153842006        4.2465404662
  C        15.5924289799        5.4428114109        4.7225223777
  H         6.8858446918        7.4571695148        2.8069591934
  H         7.5904457281        7.1546340207        1.4642913599
  C         6.1283195088        5.6623497547        1.7901051101
  N        11.5196626452       -0.3541429849        1.5535637923
  C        12.0074490531       -0.0753165299       -0.6409157471
  C        11.9714621859        2.0412675646       -1.8561998977
  H        11.9010245416        3.7921099212       -0.5999047943
  H        12.3255077473        1.7006896685       17.6937439989
  H        13.0921444504        3.2346044187       17.4154136652
  H        14.0189254216        1.9473011970       17.7876098163
  S         6.5412950084        6.4665846492       17.9150227634
  C         6.4301022568        9.0794211017       18.4606851683
  H        15.3698212426        4.6354967986        5.3985031226
  H        15.7669824848        5.0190841153        3.7046863821
  C        16.9567473660        5.8547638207        5.2723644992
  H         5.7878624532        5.2472707490        2.7195620305
  H         6.3832132132        4.7405094934        1.1531410919
  C         4.9156168348        6.3617739728        1.1469956933
  S        11.6576837118       -1.8264028782        0.9715919052
  N        12.0275658616       -1.4524540225       -0.5645565338
  C        12.1732145400        0.6153454077       -1.8754982095
  H        12.1826280920        2.6883724253       -2.7394333765
  C         6.2811833223        7.0656092338       19.5280334374
  N         6.2053936562        8.4128617804       19.6497011717
  O         6.6688040928       10.2511480788       18.3097994891
  H        17.7758109230        5.6642519526        4.5478360864
  H        16.8862817003        6.9802979942        5.4375932231
  C        17.1885368838        5.2141819162        6.6539282009
  H         5.3898941081        7.2247157740        0.5009751315
  H         4.3467005782        5.6363601468        0.5436751630
  C         4.0730844254        7.2052694852        2.1699375783
  C        12.5025267634       -0.1360502517       -2.9968858300
  S         5.8399740519        6.2237750673       20.9849766298
  C         6.0295943232        9.2895355762       20.8404712795
  H        16.3031741692        5.3213513578        7.1912540737
  H        17.3179833543        4.1409491629        6.6990550651
  C        18.3066167762        5.9536286353        7.4006053272
  H         4.6462918685        7.5539502983        3.0400048925
  H         3.2953537233        6.5068603067        2.5560823645
  C         3.3154968451        8.3600672267        1.4683579875
  H        11.9221909278       -1.1411365065       -3.0259583960
  C        13.1135466841        0.0849480436       -4.2000380358
  H         5.3830412132        8.8068060699       21.5195333105
  H         5.6973060360       10.2920394744       20.6592670504
  C         7.3907834151        9.3205426889       21.5738825382
  H        18.4621227414        5.5719744244        8.3598235032
  H        18.0614853390        7.0299092051        7.4674168337
  C        19.5845246043        5.7208913821        6.5419470801
  H         3.0770243627        8.1313824926        0.4569851516
  H         2.3624867726        8.5611345631        1.9945724231
  C         4.1496165116        9.6543457187        1.5167087074
  S        13.7127817803        1.6130803055       -4.7499081846
  C        13.2974322157       -1.0165474902       -5.1180268467
  H         7.5080740155        8.5310358475       22.3978036340
  H         7.7378740949       10.2047986473       22.0024222053
  H         8.2167153508        9.1370083404       20.8609453961
  H        19.8748431986        6.6746424043        6.1415679898
  H        20.3888123445        5.3910321236        7.2010067081
  H        19.4381802422        4.9073446344        5.8867515289
  H         4.3720713689        9.8943494160        2.5599661348
  H         5.1516064152        9.6425791595        1.0295570389
  H         3.7875389474       10.5179218817        1.0660897921
  C        14.0019955707        0.8050863440       -6.3161092421
  N        13.8288690312       -0.5503724349       -6.2350268439
  O        13.0131724789       -2.1698108168       -4.8362036526
  S        14.9181717972        1.5166113473       -7.6182853125
  C        14.0361845052       -1.4816312523       -7.4140872670
  H        14.3966207803       -2.4772362295       -7.0740380072
  H        14.9960939021       -1.3274080159       -7.9655836042
  C        12.8059362015       -1.5721095517       -8.3372401740
  H        13.1288415889       -1.3211858631       -9.3223569165
  H        11.9210106017       -0.9224411926       -8.2525645284
  H        12.5969800721       -2.6373933460       -8.2039610701
