352
 i =    84000, time =    42000.000, E =        99.0917455280
  H        12.1003133779        7.1041573878       32.5178599415
  C        11.8186656938        6.1118217854       32.5409420207
  H        12.6111536067        5.5329753145       32.1966635991
  C        10.6452567905        5.8051059262       31.5811998475
  C        11.5446876935        5.5163927175       33.9617603176
  C        10.8425987783        6.2141111967       30.0857109330
  H        10.4463404737        4.6990259907       31.6031224771
  H         9.7987689019        6.2725539009       31.9800472653
  H        11.6638632587        4.4176451684       34.0432434930
  H        12.1481067776        5.9186709527       34.7320054563
  H        10.4889525020        5.6562133013       34.2889075000
  C        10.1427750135        5.5037226131       29.0075788897
  H        11.8837420068        6.3020666216       29.9164838413
  H        10.6126418076        7.2616985265       29.9993229358
  C        10.7088163879        5.8764280272       27.6589095378
  H        10.2862484511        4.4248344350       29.0697532845
  H         9.0592668345        5.7737737757       29.0087989701
  C         9.7553573650        5.2500974258       26.5339251305
  H        11.6612744032        5.3647797520       27.7654297217
  H        10.8127034015        6.9142811039       27.5981828252
  C         8.5399740966        6.1093734807       26.2162778391
  H        10.4135345711        5.1727465249       25.6163086118
  H         9.4491848885        4.2699945678       26.8092060441
  C         7.3063170667        5.4336003215       25.5897707945
  H         8.2161981333        6.5837912878       27.1674117352
  H         8.9240118612        6.9636088085       25.5830282712
  C         6.9553140402        4.1538949957       26.3233011745
  C         7.6927317856        4.6799933482       24.3883022896
  C         6.0498808631        6.2980380789       25.4656321159
  C         7.0768776433        3.0407951336       25.5406835877
  C         6.5099327142        3.8634780045       27.6620273726
  C         7.6526380054        3.3311630358       24.3272160037
  C         8.0739911297        5.2491147347       23.2105169396
  H         6.2723715239        7.2188483269       24.7941175184
  H         5.9758453004        6.8183546239       26.4897525233
  C         4.8009651924        5.5643532793       24.9287378759
  S         6.4318151683        1.7008031779       26.1686141363
  C         6.2922478878        2.4707551626       27.7580415891
  H         6.6066920990        4.6658541976       28.4161957114
  C         8.1010858867        2.6731399764       23.1547634221
  H         8.0114389305        6.2602518043       23.1832241487
  C         8.5157499554        4.6305533613       22.0530743768
  H         5.1208966996        5.3537205241       23.8696062504
  H         4.5589113741        4.6155563626       25.4411897868
  C         3.5541212523        6.3697131875       24.8420063216
  C         6.0373390557        1.7383879087       29.0102116241
  C         8.5473160825        3.2880302155       21.9711745881
  H         8.0628291968        1.5941415351       23.1624430207
  C         9.0157719120        5.0259620336       20.8260570072
  H         2.9169998309        5.9160269310       24.0877634411
  H         3.7795159527        7.3000399194       24.3638778274
  C         2.7011241677        6.6457487743       26.1468249615
  C         6.0824011075        0.3278715446       29.2270809911
  C         5.5787381331        2.5780505362       30.1354210144
  C         8.9467007361        2.5672630814       20.7609596538
  C         9.2825630669        3.8872675582       20.0786525811
  S         9.3198976704        6.5318155676       20.0037147319
  H         1.9759558267        7.3460208766       25.8819990536
  H         3.3913113000        7.0783678982       26.9507045706
  C         2.0327872224        5.3182863771       26.6319663080
  N         6.3739343896       -0.6279768528       28.2440004565
  C         5.7587821774       -0.2572931518       30.4462918748
  C         5.3224761048        2.0558729569       31.3902821000
  H         5.2714915666        3.6093108753       30.0759040091
  C         7.7595238449        1.8541574779       20.1352332493
  C        10.2301248191        1.6727822274       20.8149244374
  C         9.5565969542        4.2050879683       18.7581447695
  C         9.5912830869        5.5538403313       18.5714371021
  H         1.3601167482        5.0160918314       25.9291263073
  H         2.7630921568        4.5403290466       26.7214600614
  C         1.2819089620        5.5351553935       27.9756914437
  S         6.3499564202       -2.0617680073       28.9215420869
  N         5.7673134239       -1.6016414142       30.4178386063
  C         5.2679104413        0.5343537217       31.5485235618
  H         5.0244522527        2.7364003786       32.2163569422
  H         7.3874895788        1.1448926025       20.8529183663
  H         8.0259292672        1.1349206961       19.3651564226
  C         6.4800442022        2.6196577958       19.6902774648
  H        10.3688405233        1.2055574369       19.8444063234
  H         9.9840412614        0.9159113803       21.6102967371
  C        11.4508964070        2.5008236462       21.3314633543
  H         9.6567671238        3.3740562498       18.0246972166
  C         9.8784359295        6.2638720235       17.3012244548
  H         0.4795094189        4.7777111116       28.0425863860
  H         0.7446423947        6.5334771197       27.9744698838
  C         2.2131189395        5.5726382496       29.1149779447
  C         4.9189205262       -0.1053115694       32.7504183067
  H         6.7620540824        3.6490317048       19.4618618521
  H         5.6677192856        2.6449483263       20.4487898707
  C         6.0037584259        1.9868285362       18.2808229000
  H        11.2194050792        3.0331194326       22.2731640313
  H        11.9382438879        3.1747383295       20.5417089274
  C        12.5575711349        1.5416040282       21.7477257864
  C         9.9103283911        7.6736458556       17.1842347391
  C        10.0669915004        5.4469105380       16.0877275515
  H         2.8481599854        4.6953096395       29.0539917263
  H         2.7648465879        6.4612840808       29.1159378386
  C         1.5627297147        5.5347762159       30.4973749959
  H         4.7312039674       -1.1665139911       32.5085466385
  C         4.6845176792        0.2759004074       34.0437366722
  H         6.4301589683        1.0375709292       18.1183857949
  H         6.3202097021        2.5778283121       17.4278632351
  C         4.5136492414        1.8311148221       18.0003466405
  H        12.3551321884        1.1627347349       22.7043270254
  H        12.5931760105        0.6861451436       21.0777462661
  C        14.0366110597        2.0972867877       21.5100122049
  N         9.5598944596        8.6051554969       18.1437743203
  C        10.3183003337        8.3020393555       16.0064985013
  C        10.4864889003        6.0889501874       14.9119132933
  H        10.0250243484        4.3681394850       16.0027199481
  H         0.8343756583        4.7313868192       30.6092536735
  H         2.3398657090        5.4329584766       31.2558711211
  H         1.0755861257        6.4397500003       30.7594613656
  S         4.6130710450        1.8678645576       34.6037510171
  C         4.6369608685       -0.7575271450       35.0257943318
  H         4.0993046593        2.6133898892       18.6342987087
  H         4.2504091683        2.0007281853       16.9975702102
  C         4.0220942987        0.4512134467       18.4464556229
  H        14.0546691767        2.9227570220       20.7317244186
  H        14.7589344449        1.2634469721       21.3335283016
  C        14.4988443920        2.8218378398       22.7337558409
  S         9.8476549769       10.0903013480       17.6166182182
  N        10.3732410991        9.6240704939       16.1521514622
  C        10.5957117601        7.6079024883       14.8119792585
  H        10.3723573761        5.5540099661       14.0414070560
  C         4.3122000437        1.1459837019       36.2282188401
  N         4.4576057139       -0.1842302776       36.2234793384
  O         4.7988467906       -1.9320394915       34.7395900041
  H         3.8976882931        0.4438696604       19.5488745475
  H         4.6561290815       -0.4359293576       18.1888651013
  C         2.6111265796        0.2356404895       17.8480179475
  H        13.8606248790        3.6745658851       22.8875083999
  H        14.3687108764        2.0867622698       23.5513033640
  C        15.9424385022        3.3578043842       22.6614895988
  C        10.9654324414        8.2621104226       13.5805422877
  S         4.0638760738        1.8679346124       37.7817321213
  C         4.4168512163       -0.9121915839       37.4533566038
  H         2.2271575703        1.2852721915       18.0563294043
  H         2.6275910461        0.1439445452       16.7481776168
  C         2.0060390848       -0.9921154708       18.5627996103
  H        15.9206379684        4.1859711071       23.3199951902
  H        16.2336728853        3.8466756275       21.7175567144
  C        17.0276763921        2.3010561098       22.9228913862
  H        10.9180633268        9.3680660144       13.6493244775
  C        11.3918560660        7.8299560709       12.3485204183
  H         3.5321007888       -0.7401305502       38.0382263118
  H         4.2143580673       -1.9295071217       37.2666644409
  C         5.6973733041       -0.7851777039       38.2829845197
  H         0.9696243136       -0.8349654394       18.8189518111
  H         2.4828502907       -1.2284915757       19.5267505770
  C         2.1166771057       -2.1953637635       17.6809952712
  H        16.9290294029        1.4660808917       22.2493664577
  H        17.9392925674        2.8248900232       22.5882981814
  C        17.1659862204        2.0013763124       24.4254034638
  S        11.8671885259        6.2400754394       12.0805917393
  C        11.4566556066        8.7111595589       11.1624275139
  H         6.2927629901       -1.6898411787       38.3246268067
  H         6.4120302034       -0.0169381994       37.9572610186
  H         5.3899537843       -0.5345958011       39.3042664573
  H         1.6313235515       -1.9780244667       16.7603401708
  H         1.6170605409       -3.0399997296       18.1828987364
  H         3.0793642801       -2.6367876711       17.4404911886
  H        16.7905960294        2.8431781298       25.0183454216
  H        18.1680163230        1.7166884838       24.7436056547
  H        16.5291926373        1.1250641642       24.6005875031
  C        12.1174252651        6.7352457301       10.3880194105
  N        11.9596320568        8.0407480168       10.1183498726
  O        11.2368178293        9.9489332246       11.1965209775
  S        13.0200217672        5.8252913105        9.0777786054
  C        12.1385352107        8.6945397659        8.8334274025
  H        12.2433783633        9.8050297618        9.0863190551
  H        13.1668978835        8.3376318966        8.3735053674
  C        10.9190019810        8.4124021315        7.9909206083
  H        10.2785157520        7.6540132715        8.3940361411
  H        10.2510295098        9.3418007811        8.0170000646
  H        11.1446454120        8.1069239615        7.0017659641
  H         4.5778065918        1.6167011475       13.0184007598
  C         3.7776573092        2.3277635371       12.9748025327
  H         4.1571251374        3.2876576477       13.1433486638
  C         3.0746372946        2.3922645529       11.6636514545
  C         2.8361580828        2.0538668405       14.1500128648
  C         4.1464966287        2.5488609522       10.6157248927
  H         2.3157413909        3.1463833979       11.4811396758
  H         2.4179801777        1.4736883706       11.5613382606
  H         2.1577423987        1.2250031614       13.8711760901
  H         2.2418961365        2.9647229574       14.3054677969
  H         3.4122881706        1.8120637025       15.0735834495
  C         4.8587725684        1.1862301501       10.3979878728
  H         3.7429568280        2.8786434572        9.6704499560
  H         4.8314654884        3.2972981859       10.9320049305
  C         5.2507656851        1.0286059910        8.9162440560
  H         4.2907186692        0.3215259447       10.7620766749
  H         5.8005906642        1.0883630103       10.9417247849
  C         6.4145641054        2.0420006429        8.6126561946
  H         4.4512599364        1.3517521813        8.2656188453
  H         5.4314086987       -0.0102690568        8.6078556972
  C         7.7692282000        1.4678557956        9.0571697540
  H         6.5708033125        2.2921183239        7.5339624054
  H         6.3549519809        2.9689208309        9.1520666311
  C         9.0141033882        2.4334998136        9.2423144334
  H         8.0243158524        0.7473097831        8.2288497734
  H         7.6224114793        0.8867522072        9.9112885212
  C         8.6889766736        3.8068905829        9.9172599268
  C         9.4262224803        3.1452850131        8.0069190068
  C        10.2041334549        1.7691800518        9.9597642733
  C         8.9263756987        4.8706892052        9.1145289854
  C         8.0305303962        4.2284700525       11.0548885934
  C         9.4757188058        4.4721852689        7.9028059544
  C         9.9521385837        2.4929429508        6.8636097255
  H         9.9215366926        1.0434572088       10.7551355301
  H        10.6456390664        1.1183675001        9.1852781935
  C        11.3084758637        2.7685207516       10.4948019958
  S         8.4788212846        6.3907921532        9.7908657036
  C         7.8784285419        5.5926440389       11.1643138698
  H         7.6995657221        3.4916642634       11.7631707315
  C         9.8699066733        5.1116515861        6.7190526602
  H         9.9738315413        1.3928945307        6.8673399647
  C        10.3385367493        3.1291550834        5.7184243443
  H        10.9402844458        3.4751611418       11.1068417955
  H        11.7782720408        3.3931459059        9.6415944684
  C        12.5531570990        2.2300667411       11.1560508510
  C         7.4042205590        6.2652693640       12.4786740479
  C        10.3443812900        4.4794986484        5.5995047285
  H         9.7129720192        6.1883055383        6.5606246468
  C        10.8527170183        2.7029363633        4.5400472725
  H        13.2139176652        3.0867974747       11.2334503429
  H        12.8998566176        1.4678356109       10.4719646112
  C        12.2813532941        1.5091685717       12.4770666886
  C         7.6021118295        7.6204294951       12.7256783075
  C         6.9750679541        5.4499933488       13.6740919449
  C        10.7484717799        5.0968554462        4.2443560660
  C        11.1552967708        3.7491097676        3.6679592729
  S        11.0215246324        1.1951106264        3.8072514413
  H        11.4823928759        0.8348613726       12.2747305604
  H        13.1048761532        0.9403980450       12.7965528319
  C        11.9029777699        2.4353984608       13.6259714515
  N         8.0302219073        8.5794427747       11.8407642620
  C         7.3605924623        8.1532243539       13.9961462948
  C         6.8194993664        6.0418493440       14.9358815536
  H         6.7051075966        4.4110771512       13.6057861627
  C        11.8933306603        6.1379362145        4.3749233472
  C         9.4665186633        5.7212101228        3.6309252464
  C        11.6274438668        3.2918765045        2.4342088035
  C        11.4657463216        1.9582417622        2.3174063892
  H        11.0190390730        3.0130128183       13.4230194085
  H        12.6500677523        3.1737921581       13.7258061010
  C        11.9734590260        1.8194520905       15.0089328520
  S         8.2060866045        9.9775816557       12.6041633113
  N         7.6101949478        9.4892857610       13.9742700753
  C         7.0324728669        7.4622201300       15.1601632762
  H         6.2566217878        5.4876468177       15.6504840970
  H        11.4698410933        6.9709211076        4.9523546211
  H        12.1417207711        6.6131358066        3.4294862872
  C        13.1533369813        5.5990864608        5.0992552908
  H         9.1007713096        6.4892474510        4.2867350166
  H         9.7333966874        6.2804085237        2.7139123652
  C         8.3737568013        4.7206274149        3.2482923973
  H        11.9976847643        4.0313740867        1.7236559868
  C        11.6892445217        1.1988372486        1.0300435606
  H        11.0120846431        1.6400745348       15.3722139254
  H        12.4371922650        0.8688117381       15.0145785697
  C        12.6246998607        2.7228077324       16.0629110685
  C         6.8412567707        8.2388379367       16.3746964385
  H        12.9717043480        4.8844354085        5.8727963869
  H        13.7918815086        5.1686658495        4.2926277827
  C        13.9638457146        6.7711485879        5.7044404382
  H         8.2094447113        4.0433049241        4.0454514427
  H         8.7104678444        4.2460420412        2.2989013198
  C         6.9736288696        5.3577335159        3.0853607183
  C        11.8511013827       -0.2452296834        0.8770556415
  C        11.8051403049        1.9416643159       -0.2477725179
  H        12.3398736142        3.7996478756       16.0227897881
  H        13.7143497010        2.7401698615       16.0591826610
  C        12.2572987618        2.1016824543       17.4539656144
  H         7.0855737628        9.2738443793       16.3444259086
  C         6.4820729638        7.9012162077       17.6971724028
  H        13.3724732761        7.2608018916        6.4591941796
  H        14.2971234342        7.3627095586        4.8670050455
  C        15.1300393820        6.1681655647        6.5241845890
  H         6.2808530216        4.6766874229        3.6604278565
  H         7.0589628270        6.3848132127        3.5459377993
  C         6.3892991727        5.3449219709        1.6646346955
  N        11.7391007091       -1.2422883752        1.9068338143
  C        12.2212745447       -0.8046528773       -0.3708822354
  C        12.2610244438        1.3984743239       -1.4620374375
  H        11.5434579416        2.9819850091       -0.2388406615
  H        12.8857677059        1.0985206206       17.5681424487
  H        11.1789343667        1.9244793577       17.3677164153
  H        12.4883592610        2.8011888183       18.2917244393
  S         6.2444720258        6.3157910976       18.3432764493
  C         6.3153317363        9.0293139211       18.6982084019
  H        15.5659087299        6.9596914618        7.1066979520
  H        14.8306816725        5.3499822404        7.2726160673
  C        16.2343608080        5.5525746621        5.7027030511
  H         6.4246023941        4.2603937097        1.4399091444
  H         7.0403245504        5.8494653521        0.8603020933
  C         4.8772599057        5.7882636762        1.6654741859
  S        11.9160361610       -2.7325488900        1.1493645170
  N        12.4696997507       -2.1348727924       -0.3084845394
  C        12.4825006865       -0.0528326188       -1.5586792700
  H        12.2159103901        2.0465438537       -2.3139242960
  C         5.9586541005        7.1076764020       19.8950865316
  N         5.9880893979        8.4459321338       19.8664096727
  O         6.6136559327       10.2041747602       18.4737333480
  H        15.6768718616        4.8015752788        5.1246518293
  H        16.6914769748        6.1791794270        4.9530175904
  C        17.2671567755        4.8033543630        6.5530434340
  H         4.4471641976        5.5513699477        0.6655172638
  H         4.4009223466        5.2766454860        2.4375431197
  C         4.7125969781        7.2269559340        1.9574393674
  C        12.9874276946       -0.7209515119       -2.7185576510
  S         5.4095182510        6.3183878886       21.3113536560
  C         5.9439101967        9.1862569599       21.1457973006
  H        16.7614272336        4.1474204025        7.2909812574
  H        17.8592466382        4.1553695076        5.9076826691
  C        18.2508107077        5.6886977655        7.2567784746
  H         5.4973528971        7.6285309193        2.5807390946
  H         3.7836462391        7.3861202050        2.4944470843
  C         4.9230982824        8.1017587479        0.6636179188
  H        13.0196032864       -1.8204149487       -2.7480055793
  C        13.4554072738       -0.1383562513       -3.8697352787
  H         5.2820111070        8.8698993330       21.9086842776
  H         5.4703928473       10.1625955516       20.9515819634
  C         7.3706764366        9.4050318390       21.7961506027
  H        18.6405227434        5.2360310827        8.1583439935
  H        17.7617868678        6.6132551304        7.5769266580
  C        19.3894546297        6.0062650182        6.2642618413
  H         5.9604404314        7.9547454581        0.2909658356
  H         4.1170793039        7.8167471265       -0.0762438360
  C         4.6232887984        9.5540475101        0.8635283882
  S        13.5525744341        1.4341886523       -4.3615908033
  C        13.8044973659       -1.1360205978       -4.9149324965
  H         7.4089992111        8.5966926768       22.5394759674
  H         7.6653887841       10.3643736303       22.2361884445
  H         8.1161482524        9.0523251344       21.0242103511
  H        19.8892642687        5.0704814147        5.9896389932
  H        19.0525086780        6.3648033051        5.3675282241
  H        20.0275020425        6.7111718920        6.6563921128
  H         4.8755517035        9.9390208708        1.8879468314
  H         5.1666237779       10.0912048321        0.1344002132
  H         3.6037359629        9.9425810680        0.6978096159
  C        14.3231995936        0.8116427931       -5.7784160755
  N        14.4575196023       -0.5164771753       -5.9090951171
  O        13.5249374525       -2.3496387142       -4.8425322198
  S        15.2510210168        1.6821958005       -7.0340119914
  C        14.7381194116       -1.2435095945       -7.2255037096
  H        14.9044407939       -2.3513548615       -7.0113567532
  H        15.6216283357       -0.7937872452       -7.6811080174
  C        13.4718159927       -1.3253424595       -8.1073222405
  H        12.5664914214       -1.1006321811       -7.5178097959
  H        13.4540468829       -2.4293352427       -8.4278515432
  H        13.4846723909       -0.8054824827       -9.0372866756
