352
 i =   133900, time =    66950.000, E =        98.8572711348
  H         9.6105443910        5.8417376724       31.7097394637
  C        10.6511935241        6.2727477297       31.9263001853
  H        10.4028418856        7.3276078243       32.0107042518
  C        11.6231503803        5.8338762528       30.8200228521
  C        11.1810959449        5.7509295184       33.2468249498
  C        10.8034914312        5.2310260863       29.7080632661
  H        12.1787628030        6.6805298491       30.4220947920
  H        12.4577001731        5.2016293884       31.2805752297
  H        10.5476032301        6.1051923107       34.0265195372
  H        11.3095527554        4.6786578912       33.3103076683
  H        12.1949318096        6.1412623789       33.4329442497
  C        11.5960559345        5.1093266297       28.4092660224
  H         9.9187088074        5.8400184335       29.6266473517
  H        10.4785530620        4.3158743842       30.1012445169
  C        10.7927732595        5.7478389229       27.1983063562
  H        12.5337280736        5.5396404758       28.5942473354
  H        11.7612720495        4.0654110869       28.1202120044
  C         9.5196822751        5.0198624466       26.8516326825
  H        11.3608652692        5.5575024068       26.3156239716
  H        10.7115189221        6.8510724305       27.1604043998
  C         8.5108777993        5.9530101891       26.1492148044
  H         9.7378903528        4.1792361596       26.1789663092
  H         8.9750143806        4.4459769535       27.6817957234
  C         7.3993546913        5.1939872401       25.3644245097
  H         7.9977907594        6.7010668710       26.8328132083
  H         9.0374413071        6.4425293578       25.3680775296
  C         7.0550444616        3.8879760365       26.0324963778
  C         7.8855240606        4.4587584469       24.1612763106
  C         6.1097980056        5.9979989657       25.2754179402
  C         7.3397552338        2.7558437239       25.2893186343
  C         6.4674005967        3.5249386207       27.2566052772
  C         7.8603582581        3.0990392128       24.0558622614
  C         8.2756484813        5.0538816427       22.9806112644
  H         6.3129833044        6.7601012063       24.6128761882
  H         5.7946741793        6.4019220920       26.2992155550
  C         4.8886138259        5.2424126816       24.8428063548
  S         6.9946010783        1.2615709218       26.0121038320
  C         6.4195906888        2.1513843406       27.4188950842
  H         6.3971606381        4.3082387349       28.0143046646
  C         8.3250778455        2.4484987249       22.9730178927
  H         8.0658508124        6.1170823487       22.8476436321
  C         8.7526916564        4.4360983590       21.8703604153
  H         5.1247337232        4.9373687444       23.8423029431
  H         4.5935922430        4.3594018076       25.4564968633
  C         3.7559267698        6.2272294362       24.8132799344
  C         6.0391266241        1.5275629746       28.7669413509
  C         8.8039986584        3.0308977683       21.8006570878
  H         8.2169393614        1.3762659243       22.8789286912
  C         9.1213875638        4.8028612053       20.5722269641
  H         3.0079424716        6.0218668794       24.1118090211
  H         4.1324924382        7.2495418281       24.5806278923
  C         3.1056111741        6.5153704834       26.1656737661
  C         6.1017870129        0.1516225564       29.0274134891
  C         5.7084681794        2.4235196520       29.8936057150
  C         9.1667736833        2.3778691965       20.5131343056
  C         9.3170801798        3.6736714941       19.7631057812
  S         9.4423869699        6.3029768188       19.8012260790
  H         2.1293828639        7.0680987975       26.0638840696
  H         3.7500007039        7.1847628904       26.7155050168
  C         2.7213603838        5.2062978418       26.9659202489
  N         6.4207582785       -0.8044862710       28.0980440317
  C         5.7299116536       -0.4192758495       30.2641373630
  C         5.3997557665        1.9029681351       31.1564350910
  H         5.6905627012        3.5162390664       29.8761000714
  C         7.9871805239        1.5541533829       19.9632810898
  C        10.4591756749        1.5660450847       20.5881750948
  C         9.7264152578        4.0470088875       18.5000792655
  C         9.7270068624        5.4283303845       18.2801027460
  H         2.2541665631        4.4749272700       26.3059344334
  H         3.5711901291        4.6244274489       27.2650589367
  C         1.7859781048        5.6017898082       28.0892978237
  S         6.3070684216       -2.2597310288       28.7606744321
  N         5.8831569561       -1.8129319199       30.2598162867
  C         5.4551690869        0.3974517280       31.4226801298
  H         5.0811138222        2.5108100225       31.9974026644
  H         7.4677742993        1.0400608375       20.7648088392
  H         8.3199660830        0.8651944766       19.1803042394
  C         6.8766489099        2.3584060832       19.1406890589
  H        10.5647473908        0.9566477154       19.6552266432
  H        10.3361674796        0.7634435217       21.3389141662
  C        11.7431490250        2.3995946949       20.7625872644
  H         9.7912789148        3.2888343399       17.7343074469
  C         9.8619513081        6.1766935638       16.9157087393
  H         1.2658152134        4.6717265133       28.3207769487
  H         1.0261330273        6.1844247042       27.6530832962
  C         2.4367390182        6.1223913601       29.4063852136
  C         5.3556158479       -0.3034102424       32.6341248911
  H         7.2302176080        2.7386603464       18.1694373571
  H         6.6732769800        3.2580481872       19.7357426918
  C         5.6818451193        1.4954580683       18.8047796461
  H        11.4871612057        3.1868793215       21.5131672449
  H        11.9730590324        2.9446214572       19.8839488998
  C        12.9013730236        1.6358309470       21.1896023915
  C        10.0123665222        7.5885620493       16.7884739431
  C         9.9951416802        5.3306432288       15.6964336502
  H         3.2465254039        6.7679017762       29.0916697070
  H         1.7973536806        6.8015553350       29.8926467358
  C         2.9538802169        5.0463182940       30.3607595529
  H         5.5064388299       -1.3876865247       32.5695099775
  C         5.0775482456        0.1457704655       33.9276043123
  H         5.2028723581        1.0956109744       19.7135939939
  H         5.9841444506        0.6301678782       18.1856109516
  C         4.4439299484        2.1675751194       18.1526438133
  H        12.8038697157        1.0667292320       22.1503990560
  H        13.0240260178        0.8330657501       20.4637273775
  C        14.2227275554        2.5050863631       21.1393195276
  N         9.8628780718        8.5985479250       17.7854074671
  C        10.2362989234        8.1414376813       15.5475690389
  C        10.3188873316        5.9146415951       14.4621378306
  H         9.8360852174        4.2332654899       15.7416484487
  H         3.5665427579        5.3674048878       31.2168763911
  H         2.1181449273        4.5611589828       30.8941886007
  H         3.4412256259        4.1694352707       29.8772311430
  S         4.7494803469        1.7059508785       34.5008806423
  C         5.0124810829       -0.9127937695       34.9754070523
  H         4.3276178445        3.1137364556       18.7035021117
  H         4.4580943838        2.5269365297       17.1265516329
  C         3.1460252822        1.4895398341       18.3982049257
  H        14.0510711481        3.5345691759       21.4353843133
  H        14.3547097143        2.7809717984       20.0981222531
  C        15.4033418079        1.7257211234       21.7029488853
  S         9.9679504082       10.0255404280       17.0430597127
  N        10.4336154157        9.5115790253       15.5710924363
  C        10.4842781657        7.3543350776       14.4026644087
  H        10.5680732124        5.2550088461       13.6958446339
  C         4.6636359631        1.0161359315       36.1094045066
  N         4.7536649702       -0.3358963734       36.1608246422
  O         5.0468486247       -2.1623253403       34.7230666518
  H         2.4321561192        2.3234769205       18.4187330445
  H         3.0525343867        0.8943396709       19.2796679633
  C         2.8589216144        0.4618944849       17.3560240922
  H        15.0706976405        1.1316510859       22.5650657836
  H        15.7586231047        0.9928622104       21.0391665126
  C        16.6248538791        2.6174227236       21.8899523106
  C        10.7516688945        8.0090859921       13.1533041876
  S         4.0193046889        1.8699652355       37.4938266031
  C         4.7693824597       -1.0989571742       37.4190453686
  H         2.3398501518        0.9509746451       16.5493425655
  H         3.7823661609        0.0663157348       16.8785625464
  C         2.1040765968       -0.8116221473       17.8164034738
  H        16.2594827141        3.4255702539       22.3986290987
  H        17.0723373913        3.0423931975       20.9355969197
  C        17.7016802705        1.9792878096       22.6744343566
  H        10.6908023727        9.1092079998       13.1468249062
  C        11.1063480416        7.6290403424       11.8805624805
  H         4.3620210360       -0.5152491200       38.2402834014
  H         4.2356202975       -2.0673604816       37.4262838217
  C         6.2190852623       -1.4243916664       37.7376443366
  H         1.3996085292       -0.4981893706       18.6372267714
  H         2.8163814952       -1.5590708278       18.3253744735
  C         1.3576595636       -1.5524992587       16.7089920429
  H        18.0172620867        1.0523798792       22.1502782273
  H        18.6154915423        2.5926861501       22.6801563459
  C        17.2442868220        1.8761920462       24.1295625236
  S        11.5838646335        6.0530276125       11.4095744717
  C        11.2996746664        8.6643432492       10.8397635316
  H         6.3459420354       -2.5026425282       37.7967843302
  H         6.9190976188       -1.0072232509       37.0186116573
  H         6.5031036744       -1.0863405140       38.7283541454
  H         0.5209898423       -1.8908932639       17.2276800355
  H         1.8217268341       -2.4261983721       16.1987121717
  H         0.9616195509       -0.8940532934       15.9606926227
  H        16.4635586232        1.1396399388       24.1440994175
  H        16.7639779501        2.7403687868       24.5463665765
  H        18.0767225134        1.5456775919       24.7723468204
  C        12.0612196523        6.7419479734        9.8772905296
  N        11.9106245164        8.0840356934        9.7858160172
  O        11.0793907017        9.8640068851       11.0167074697
  S        12.8388827423        5.8825402516        8.5523265242
  C        12.3463731858        8.9470069829        8.6571869400
  H        12.6306492568        9.8694837118        9.0624209818
  H        13.1692602512        8.4398216558        8.1539874592
  C        11.1131876879        9.1958218398        7.6997764392
  H        10.2457099774        9.1595522716        8.3082554887
  H        11.2359786520       10.1723554350        7.2621571216
  H        11.0741561973        8.4866182305        6.9043437978
  H         2.5828471083        1.5488238897       13.6876243180
  C         3.3703891813        1.8866849136       12.9428805207
  H         4.0730120592        1.0980096010       12.8200859271
  C         2.6916385975        2.2949526333       11.6446551082
  C         4.1555124675        3.0246303404       13.6062868142
  C         3.7014819604        2.6687629421       10.4906729207
  H         1.9182244770        3.0620083740       11.7618057429
  H         2.1022378743        1.4040828781       11.3281951397
  H         4.0546559021        3.9499382839       12.9852301744
  H         5.2781411804        2.8317881187       13.4879727265
  H         3.9628013930        3.1776976897       14.6586011135
  C         4.4494998544        1.4961359870        9.9028072363
  H         3.1406587298        3.0202340420        9.6552825722
  H         4.3787032141        3.4405737753       10.8929325394
  C         4.9751937710        1.7621592329        8.4694418101
  H         3.8126982804        0.6088962553        9.9476364583
  H         5.2649427929        1.1603073382       10.5826299424
  C         6.2473101139        2.5776256895        8.4287699102
  H         4.2470544250        2.3079507741        7.8725961785
  H         5.0794810806        0.8138602510        7.8857363177
  C         7.5554625427        1.8302101116        8.8742522491
  H         6.3008327126        2.9784976843        7.3941662189
  H         5.9320181476        3.3710748318        9.1761764903
  C         8.8777113702        2.5751201176        9.0284968628
  H         7.7318761308        1.0312668768        8.1860655231
  H         7.2854437564        1.3267861423        9.7931295532
  C         8.5092036828        3.9211534623        9.6574931042
  C         9.3755640188        3.3583470790        7.8639946900
  C        10.1954884435        1.9004688137        9.6001366682
  C         8.8666958193        5.0627685325        8.9184036164
  C         7.9984743393        4.3502685072       10.9551898257
  C         9.3803969793        4.6856016545        7.7021053296
  C         9.9009479207        2.7128053512        6.7365554329
  H         9.8157736928        1.2596685474       10.3994078981
  H        10.6022782115        1.2010829184        8.8797119821
  C        11.3004845974        2.8995091606       10.0774725404
  S         8.6254038513        6.5507598142        9.7590559223
  C         7.9849854374        5.7038456613       11.0691715663
  H         7.7105189427        3.5152132668       11.6344758261
  C         9.8405741276        5.2642026898        6.5574374735
  H         9.8854264190        1.6717174315        6.7352453394
  C        10.4672178120        3.2752077492        5.6037904475
  H        10.8213582453        3.6127997156       10.6598062801
  H        11.8999833816        3.2810650458        9.2465469825
  C        12.2506749147        2.1699401817       11.1075108753
  C         7.5828435585        6.4429717601       12.3644440735
  C        10.4712286081        4.6126168932        5.4918724083
  H         9.9373127438        6.3435072603        6.5612850146
  C        10.8871625210        2.8601339794        4.3447243504
  H        13.1690219959        2.7794931088       11.2380580946
  H        12.3428260126        1.1517617460       10.8659130833
  C        11.6958543195        2.2306801406       12.4825279359
  C         7.6199368138        7.8714149215       12.6293402937
  C         7.2020879441        5.6154928597       13.5325333301
  C        11.0295199062        5.2970487003        4.2699204832
  C        11.3155489533        3.9616967053        3.5778865772
  S        11.0057610750        1.3777780231        3.6186012181
  H        11.8424688914        3.2546982235       12.8894026945
  H        10.6500512156        2.1225947659       12.4076490177
  C        12.3539246780        1.3537916456       13.4366014753
  N         7.8396318343        8.8169016511       11.6136891995
  C         7.3055853833        8.4061499248       13.8661730468
  C         6.8032184697        6.1745789527       14.7510931675
  H         7.2522276001        4.5273095547       13.4946738278
  C        12.3028423667        6.1343939866        4.5361855050
  C         9.9792818049        6.0979299888        3.5279606261
  C        11.7391003722        3.4975127876        2.3284810599
  C        11.6366171401        2.1335795885        2.2226105426
  H        13.2743512764        0.9417207908       13.0770558173
  H        11.6025798754        0.5868793634       13.6449938273
  C        12.5795980245        2.0781796008       14.7525733547
  S         7.8642254766       10.2726573505       12.3584599427
  N         7.5575086411        9.7567483145       13.8929837090
  C         6.8641932009        7.6258011415       14.9860656953
  H         6.4896475816        5.4286453947       15.4680762599
  H        12.1326405472        7.0275918066        5.1496190088
  H        12.5986881473        6.5171554950        3.5611033154
  C        13.4843855355        5.2586925695        5.1151681555
  H         9.5963573931        6.8183366664        4.3402352884
  H        10.5342976768        6.7558240357        2.8633667616
  C         8.8243647503        5.2602759564        3.0249087764
  H        12.1155707935        4.1727686366        1.5920077589
  C        11.8448728085        1.4028675217        0.9472682871
  H        13.5045850951        2.6274609608       14.6295352141
  H        11.7277723605        2.7628959297       14.9951289807
  C        12.7097031723        1.2230571832       15.9903174057
  C         6.7379660714        8.2379007102       16.2809081339
  H        13.1335540769        4.6719834503        5.9767960288
  H        13.6985851439        4.6128070626        4.3574940601
  C        14.8104104273        6.0179041876        5.2201138980
  H         8.2972106589        4.6536348175        3.7810296455
  H         9.1763329976        4.6083660734        2.2786657015
  C         7.8431128541        6.1314722399        2.2719640272
  C        11.8903726254        0.0494253950        0.7516746736
  C        12.0955930751        2.1461213472       -0.3166620750
  H        13.4018641134        0.3837099373       15.7306903520
  H        11.6481792387        0.7765330089       16.1418592416
  C        13.1419659796        2.1210095710       17.1963330688
  H         6.9613244640        9.2911819469       16.3999390782
  C         6.5772816036        7.7528151230       17.5266477318
  H        14.6581562409        6.9356062706        5.8220745135
  H        15.1569292467        6.2882745239        4.2064532363
  C        15.6769013610        5.1064545226        6.0149129242
  H         7.4672254670        6.8233592331        3.0082726660
  H         8.2705093552        6.7720304367        1.4430564790
  C         6.6608645607        5.3131622190        1.5975681458
  N        11.5975555346       -0.8768960579        1.7488661994
  C        12.0475063758       -0.5352400415       -0.5168076212
  C        12.2116786840        1.5700244450       -1.5353014449
  H        12.3143861355        3.1613670421       -0.2414354262
  H        12.4432505441        2.8680200823       17.4272541654
  H        14.1524498102        2.3985307877       16.8913309267
  H        13.2554475125        1.6310387660       18.1003326770
  S         6.3593526428        6.0610494082       18.0491562515
  C         6.5423427428        8.7050198973       18.6776749234
  H        15.2510169748        4.8845334432        6.9993641282
  H        15.8539328358        4.1565344973        5.6575266865
  C        16.9843631596        5.8200470143        6.3202952080
  H         6.3426407820        4.5616753005        2.2982825824
  H         7.0284027106        4.7787818913        0.7502635328
  C         5.5668005549        6.3050314839        0.9753583202
  S        11.7460358506       -2.3533041652        1.0466273978
  N        12.1577946317       -1.9144225910       -0.4356787136
  C        12.1889273597        0.1280065733       -1.7402869546
  H        12.6530575255        2.1505974686       -2.3554144666
  C         6.1018719777        6.7003143529       19.7175025645
  N         6.2963282674        8.0121696058       19.8630270579
  O         6.4600088920        9.9331446986       18.5619412258
  H        17.3708752762        6.4359193866        5.5177623838
  H        16.7529075355        6.6479927127        6.9751914646
  C        18.0702539259        5.0011691701        6.9885305831
  H         6.0510977931        7.0533138419        0.3407283392
  H         4.8519796737        5.6366066775        0.4262105187
  C         4.7118903607        7.0826700242        2.0114105535
  C        12.4063133464       -0.6290275458       -2.8839169064
  S         5.6757537324        5.7803395504       21.1448846944
  C         6.2651985368        8.7507964196       21.1235421267
  H        17.6946199204        4.6059837294        7.9385237039
  H        18.2500190231        4.1207150250        6.3525849856
  C        19.4105091742        5.7400450400        7.1923510678
  H         5.3873526678        7.2460192970        2.8493332811
  H         3.8905363784        6.5395766296        2.3692669746
  C         4.2827159850        8.4393778786        1.5276031111
  H        11.9925935898       -1.6095645746       -2.7998206790
  C        13.0935632045       -0.3430099813       -4.0460828235
  H         6.0552101292        8.1215325431       22.0293189735
  H         5.5544684367        9.5899048980       21.3110157502
  C         7.7012630075        9.2610738767       21.3779773585
  H        20.1268393511        5.2317204063        7.9023293127
  H        19.1553568861        6.6736095958        7.6935138786
  C        20.0592913617        5.8279777143        5.8239221740
  H         5.1792289387        8.9779172232        1.1234692245
  H         3.4826204680        8.3537132648        0.7902184301
  C         3.7240778825        9.3768023411        2.6393083140
  S        13.7681475925        1.1688326647       -4.5154526332
  C        13.2441208033       -1.4432431775       -5.0805964257
  H         8.0755960081        8.8739065154       22.3295427177
  H         7.6522970304       10.3204958813       21.5860769629
  H         8.4227413058        9.1356660283       20.4952219569
  H        19.8732175444        4.9508597319        5.1320676034
  H        19.8494121154        6.7753183786        5.3304161288
  H        21.2153634384        5.8267826074        5.8338932628
  H         2.8274750491        8.8891104978        3.0039410407
  H         4.4824737089        9.4956076787        3.3790126867
  H         3.5803577695       10.3684620268        2.2242445159
  C        14.0665110480        0.3878540625       -6.0814554013
  N        13.9261667930       -0.9776590086       -6.0696860315
  O        12.9619006767       -2.6652049227       -4.9444959220
  S        15.0875817804        1.2879904061       -7.2356763418
  C        14.1582704409       -1.7419591448       -7.2546100827
  H        14.4544307389       -2.7747846559       -6.9903925180
  H        14.9716339076       -1.3484718531       -7.7842224139
  C        12.8854366192       -1.7900207181       -8.0837809816
  H        11.9612439843       -1.7920865950       -7.4710950412
  H        12.9020126545       -2.6536893544       -8.7455863608
  H        12.8617772140       -0.8181874870       -8.6585177597
