352
 i =    73400, time =    36700.000, E =        98.2144884210
  H        12.8148891937        6.7653057408       32.2116167501
  C        12.1911548188        5.9093343877       32.2861870570
  H        12.8779466247        5.0865953151       32.3088789755
  C        11.0478707562        5.8280041120       31.2137444249
  C        11.6154323302        5.9145744001       33.7135620969
  C        11.5613651316        5.9379290682       29.8430701535
  H        10.4193693209        4.9409154459       31.3338477708
  H        10.5132231484        6.6754923791       31.3802665434
  H        11.3263251829        4.8835648777       33.9332421237
  H        12.3258101131        6.2079525212       34.5015246747
  H        10.7290437320        6.5534471479       33.8141315290
  C        10.5682685464        5.9980271088       28.7015033921
  H        12.3254826408        5.1970432134       29.5939620071
  H        12.1483121526        6.8555218858       29.8811737662
  C        11.2348787256        5.7808388269       27.2760932110
  H         9.9262060439        5.1215640955       28.9016548946
  H        10.0039252906        6.9626698114       28.6026978695
  C        10.1539067220        5.1848780019       26.2544650354
  H        12.2178801152        5.1786941372       27.3050669046
  H        11.3439234704        6.7844153086       27.0033686133
  C         8.8935853166        6.0074957321       25.9926363036
  H        10.6612526748        5.1317739130       25.2451600074
  H         9.8997055097        4.1118958695       26.5922866286
  C         7.6519078471        5.2583935864       25.4758127505
  H         8.5962561144        6.6125419830       26.8252568102
  H         9.1495488736        6.7367495388       25.2594251985
  C         7.2710813248        3.9585340976       26.3099219099
  C         8.0028058635        4.4702565120       24.2951077266
  C         6.3695678911        6.0848532654       25.5831306493
  C         7.3489146444        2.8161147020       25.4819420239
  C         6.8741465699        3.5671747088       27.6344104235
  C         7.8287547512        3.1217283011       24.2328087528
  C         8.4758980513        5.0342045852       23.1651915073
  H         6.6665973216        7.0514077708       25.1892159868
  H         6.1401619619        6.2350763204       26.6004831320
  C         5.1230244183        5.6038087991       24.8987674102
  S         6.7819455369        1.4022363897       26.2025890612
  C         6.6095116985        2.2310495686       27.6795971853
  H         6.6897347921        4.3393415288       28.3343004903
  C         8.1145580994        2.4628653314       23.0351222256
  H         8.5788171227        6.0663913094       23.2249735503
  C         8.7980498197        4.3782899722       21.9970396018
  H         5.4149651225        5.2909044176       23.9235945593
  H         4.8781888350        4.6216972527       25.3617247156
  C         3.9291568339        6.5945843137       25.0809967354
  C         6.0915604947        1.5479358095       28.9358576683
  C         8.5976196024        3.0567328557       21.8578643544
  H         7.8972595291        1.3849608544       22.9595040879
  C         9.2609101462        4.8058745671       20.7969922703
  H         3.1599003067        6.2578216321       24.3947438280
  H         4.1411206947        7.6481133206       24.7908063919
  C         3.4253944983        6.6284459092       26.5273648590
  C         6.1214926283        0.1749981805       29.2655221061
  C         5.6761587134        2.4347806167       30.0324647763
  C         9.0358959203        2.4275701421       20.5852989396
  C         9.3214930396        3.6983478627       19.9064574284
  S         9.6096013824        6.3017935094       19.9933971137
  H         2.6810546691        7.4261437512       26.5947615660
  H         4.2226416753        7.0285614825       27.1894104445
  C         2.6806776913        5.3741698095       27.0157386702
  N         6.7022055057       -0.7417259891       28.3877171629
  C         5.8275892913       -0.3324814071       30.4966334429
  C         5.3191379686        1.9660285819       31.2644436249
  H         5.4673611815        3.5050216882       29.9463087535
  C         7.9471954774        1.6213161898       19.8888197645
  C        10.3920508384        1.6095105101       20.5175051105
  C         9.6413297258        4.0829046754       18.6252954026
  C         9.8192804951        5.4526669965       18.4747345333
  H         1.9168801046        4.9609712162       26.3404016393
  H         3.3715431089        4.5323839676       27.1191510517
  C         1.9081494936        5.6305116678       28.3056321562
  S         6.4967103206       -2.2092096889       29.0739085689
  N         6.0539583134       -1.6960886496       30.5822630313
  C         5.4038006316        0.5255724443       31.5676278697
  H         5.0025619830        2.6755213129       32.0045060518
  H         7.7371776310        0.6838407876       20.3999360520
  H         8.1602484078        1.4526525803       18.8124514706
  C         6.5733649054        2.3480891882       19.9011636892
  H        10.5846353460        1.3449081764       19.4686709751
  H        10.2766102550        0.7235902747       21.1290196179
  C        11.6404545608        2.3410667362       21.0360570494
  H         9.5973925971        3.3343140340       17.8325541515
  C        10.0126170302        6.2428358440       17.2010303371
  H         1.2473662674        4.8157840481       28.6024238726
  H         1.2703951297        6.5506407950       28.1314028405
  C         2.8298736675        5.9147500139       29.4439547471
  C         5.1882944690       -0.0982494664       32.8721628563
  H         6.6094769458        3.2376525396       19.3371106174
  H         6.3689577287        2.6032942262       20.9217304502
  C         5.4424266784        1.4944384650       19.3166136759
  H        11.4199937699        2.7044859896       22.0409992306
  H        11.8612094139        3.1948884944       20.3994501322
  C        12.8487772559        1.4613625298       21.1538544740
  C        10.2125052337        7.6705224516       17.0312716754
  C        10.2051946038        5.5239481896       15.9705727890
  H         3.6787391763        5.1960921422       29.5035095210
  H         3.2257303039        6.9155198518       29.2439292784
  C         2.1719446951        6.0471640833       30.7791593253
  H         5.4562866655       -1.1263809142       32.9316968417
  C         4.8831980925        0.4024002426       34.0672616053
  H         5.2327488987        0.6918575898       20.0518420672
  H         5.7669334861        1.0232868819       18.4082128682
  C         4.2117613359        2.3706113431       19.0000507368
  H        12.7463441371        0.7480522230       22.0183230722
  H        12.9561222154        0.8823668717       20.2757555587
  C        14.1004530687        2.2952605029       21.4189214371
  N        10.0280021523        8.6334524127       18.0449016925
  C        10.5012296457        8.2852371192       15.8276319836
  C        10.4309798511        6.1404745212       14.7351788211
  H         9.7613061716        4.5622655534       15.9481575099
  H         1.1786128231        6.5203626418       30.5616739220
  H         2.0984497174        5.0012467594       31.1829798043
  H         2.7208848431        6.7457767014       31.3540152574
  S         4.6073409687        2.0647618134       34.4202858301
  C         4.8235060617       -0.5071120484       35.2015748750
  H         3.9153544862        2.9515102280       19.9034866819
  H         4.4345522049        2.9430435601       18.0900303881
  C         2.9837365176        1.3752852526       18.7620637773
  H        14.0687726315        3.2041917881       20.8201241429
  H        14.9701001163        1.6941464435       21.1458973623
  C        14.5337189990        2.6274982464       22.8984976918
  S        10.3343759066       10.1141292141       17.4140147995
  N        10.5732656393        9.6941655408       15.8512905342
  C        10.7591172247        7.5801057642       14.6297285637
  H        10.5370010022        5.4976739602       13.8800218222
  C         4.4001593345        1.4777472865       36.0945080060
  N         4.4507055703        0.1932683463       36.3316627386
  O         5.1181061652       -1.6350152990       35.1719374805
  H         2.1726777019        1.9748091112       18.3732169681
  H         2.7549034735        0.9276664286       19.7018867654
  C         3.2858670226        0.1960401072       17.7168367811
  H        13.7000277535        2.8150739944       23.5295684795
  H        14.8527919340        1.6687013132       23.3068657671
  C        15.5959055747        3.7035063015       22.8887539235
  C        11.0950816750        8.2540758514       13.4273890793
  S         4.0445978688        2.4602488325       37.3985430049
  C         4.4486857348       -0.4945113942       37.6054919984
  H         3.4345294748        0.6138569211       16.7250421683
  H         4.1778591203       -0.3658274144       17.9873185248
  C         2.1378613847       -0.7630612114       17.5631638214
  H        15.6354151199        4.1930525552       23.9056179381
  H        15.3451643427        4.5791215374       22.2411977894
  C        17.0044963174        3.0791497666       22.5749332833
  H        10.8969559538        9.3178499440       13.4899094554
  C        11.5058947791        7.7983199089       12.1953946886
  H         3.6997254831       -0.0956702238       38.2311063639
  H         4.1771114630       -1.5805597146       37.4851603755
  C         5.8053491154       -0.5462315546       38.2640271909
  H         1.9822374116       -0.9552148750       16.5094998850
  H         1.1962656855       -0.2989743006       17.8703500026
  C         2.2777673061       -2.0823998549       18.3526457961
  H        17.0411914091        2.2401051794       21.9477555298
  H        17.6707047594        3.8434076551       22.1443740726
  C        17.6743956413        2.4566070623       23.7530353325
  S        11.8278676808        6.1737019933       11.7590885657
  C        11.6313616705        8.8133261858       11.0759337723
  H         6.2899119499       -1.4603664868       37.9062606933
  H         6.3466337724        0.3401981665       37.9862143404
  H         5.8456446971       -0.5627715948       39.3083746248
  H         2.9249193367       -2.6763073624       17.7009650665
  H         1.3739275257       -2.6566450724       18.6314139435
  H         2.9745679688       -1.9124218597       19.2522722563
  H        18.7063181636        2.1829060485       23.4487353313
  H        17.1482902404        1.5674169428       24.0412988564
  H        17.8287113924        3.1534757130       24.6198125365
  C        12.3389518788        6.8918451218       10.2508752672
  N        12.0926998072        8.1772309311       10.0732181500
  O        11.4536703578       10.0271125984       11.1250392024
  S        12.7041578628        5.8041447429        8.9105278637
  C        12.3781673980        8.9028351471        8.8078618186
  H        12.7271928086        9.9290062084        9.0468574500
  H        13.2110996717        8.4428229963        8.2768682485
  C        11.1740814775        8.9869499139        7.8750597054
  H        10.8006380568       10.0349799630        7.8512735515
  H        11.3491300756        8.5866170875        6.8738176245
  H        10.3991726371        8.3260705177        8.1883620862
  H         2.5247572885        1.6003657040       13.1132080000
  C         3.4294739127        2.1013913586       12.7488570871
  H         4.1879795378        1.3913967717       12.5610711164
  C         3.1535115604        3.0208821804       11.5277047777
  C         3.9758901765        2.9228379811       13.9001230391
  C         4.2922405732        3.0376305242       10.4681913033
  H         2.9312326461        4.0889960538       11.7741606014
  H         2.3241202968        2.5268006802       11.1091668944
  H         4.4644377998        2.2995337181       14.6793345561
  H         3.1587491288        3.5778270142       14.2379178786
  H         4.7249619764        3.6448584672       13.6180294207
  C         4.5164068583        1.8028193481        9.6103099666
  H         4.0157710163        3.7801833676        9.7066310567
  H         5.1772941630        3.3506756418       11.0268895790
  C         5.2318362224        2.0670901484        8.3487216496
  H         3.5894953480        1.2683610454        9.3537350028
  H         5.0748320772        1.0492907255       10.2117208440
  C         6.6064362101        2.6009824458        8.5732201366
  H         4.7923415111        2.9140981707        7.8605838492
  H         5.1640621887        1.3317440234        7.5679188652
  C         7.7944560241        1.6652043523        9.0818345957
  H         6.9850570109        2.8631880677        7.6356163962
  H         6.4286346974        3.5350998423        8.9627441689
  C         9.0605002631        2.5424549886        9.2057573916
  H         8.0962218658        0.9890647241        8.2822192784
  H         7.5443149948        1.0718214579        9.8932805163
  C         8.7480229356        3.8661288802        9.9492604623
  C         9.5304592981        3.3046493560        8.0102757231
  C        10.1716347846        1.8141594293       10.0156043626
  C         9.0359549484        5.0032813273        9.2243400883
  C         8.2079112649        4.2234028741       11.2020315780
  C         9.5783669280        4.6326689471        7.9933989993
  C         9.9365770081        2.6315534105        6.8166612256
  H         9.7453340770        1.4954304233       10.9839492938
  H        10.3537941260        0.8598347495        9.5473770641
  C        11.5078890107        2.5363497313       10.2570913077
  S         8.6213269837        6.4064128581        9.9221465004
  C         8.1392389294        5.5662298296       11.3597968490
  H         7.8887756043        3.5502693432       11.9249428315
  C         9.8715926581        5.2721591356        6.8190444542
  H         9.8685527857        1.5523282478        6.7412913709
  C        10.3663803938        3.2638442545        5.6977564197
  H        11.2652741203        3.5350290391       10.5916530747
  H        12.0281143931        2.7066614452        9.3037849278
  C        12.4298971810        2.0814689987       11.2860885227
  C         7.7055925765        6.2896383658       12.6342906315
  C        10.2900212433        4.6365731319        5.6391409891
  H         9.8089803361        6.3861458139        6.8211113366
  C        10.7476176740        2.8987594094        4.4219796793
  H        13.4298655644        2.5150103963       11.1603180598
  H        12.4815094565        1.0056199261       11.3542372257
  C        11.9011213324        2.5316413924       12.7472380971
  C         7.8183640453        7.6719902996       12.9134933993
  C         7.1613838451        5.5251636480       13.7601895791
  C        10.7654450667        5.3521533584        4.4406960237
  C        11.0577544110        4.0314296092        3.6922328421
  S        10.9877524546        1.4129080783        3.5803421102
  H        11.9518156416        3.6060305547       12.7701618164
  H        10.9226975411        2.2121103692       12.8908848617
  C        12.8500948795        2.0474169926       13.8596844304
  N         8.2781751651        8.6512870163       12.0124152944
  C         7.5772850573        8.2750935599       14.1728808140
  C         6.9343441481        6.0737840005       15.0193599297
  H         6.9688599187        4.4922096408       13.6499037446
  C        12.0062616398        6.2007411055        4.8265934557
  C         9.6179234580        6.2584549345        3.9131134472
  C        11.5161177806        3.6487975200        2.3807905745
  C        11.5906846514        2.3238548324        2.2475100928
  H        13.4661562882        2.8552259537       14.3130180281
  H        13.6382040764        1.3824590908       13.5131539043
  C        12.1587190163        1.2079571515       14.9579803294
  S         8.1332659759       10.1109275789       12.6680380668
  N         7.7223476320        9.6752596757       14.1375588369
  C         7.2506570084        7.5199217618       15.3020116485
  H         6.4743640648        5.5097618212       15.8017696214
  H        12.0043489938        6.9482432070        5.5453546097
  H        12.1326284136        6.8030815093        3.9121386431
  C        13.2965933604        5.3950479410        4.8845461295
  H         9.5530688138        7.1205497200        4.5879559018
  H         9.8782278783        6.6268811217        2.9084744455
  C         8.2823429040        5.6669889347        3.5830833737
  H        11.7533940374        4.5154879268        1.7706638391
  C        12.0003331051        1.7029275297        0.9906684139
  H        11.2431698666        0.7755408730       14.5708227925
  H        12.7987891580        0.3665131956       15.3140355516
  C        11.6617879239        1.9767249381       16.1708426672
  C         7.0295179803        8.2188890333       16.5445696495
  H        13.1325633966        4.5523873696        5.5572215513
  H        13.5612436179        4.8926021261        3.9025298028
  C        14.4873852834        6.2073804892        5.5264792096
  H         7.6135009113        5.8117826515        4.4432589880
  H         8.2630189460        4.6039902239        3.3101627969
  C         7.6294084169        6.4894882674        2.4173153575
  C        12.0442810419        0.2851582963        0.7016843500
  C        12.5989005130        2.5184804892       -0.1214712388
  H        10.8644906907        1.4845522374       16.6872662644
  H        11.1664104819        2.8020357275       15.6454916436
  C        12.6269522881        2.3676155734       17.3509692582
  H         7.1741492966        9.2768368118       16.4925143751
  C         6.7070104821        7.7302227850       17.8200626719
  H        14.3780670048        6.2394711213        6.6478116471
  H        14.5003271046        7.2560655310        5.2859571844
  C        15.8113924653        5.5693790290        5.1782512165
  H         7.6063010698        7.5507809903        2.6826818567
  H         8.1153496578        6.4121464073        1.4595250230
  C         6.1950428632        6.0733715710        2.1718508795
  N        11.6672166332       -0.6730642299        1.6346874260
  C        12.3381440447       -0.3038171699       -0.5321455667
  C        12.7966625427        1.9817930252       -1.4046447659
  H        12.6946895725        3.5801071751       -0.0331293345
  H        13.4923134841        2.8751217984       16.7986868079
  H        12.9364541881        1.5188138188       17.8977544790
  H        12.1579858765        3.0481590313       17.9673054366
  S         6.4533890882        6.0753023865       18.3533574401
  C         6.5620501821        8.6768262367       18.9520484519
  H        15.9238655434        4.6304392738        5.6346284842
  H        15.6715406436        5.2944357097        4.1087475540
  C        17.1003574602        6.3130226508        5.2793481962
  H         5.6264912757        6.3347405428        3.0985780227
  H         6.0632224884        4.9525590223        2.0286930895
  C         5.6314341992        6.8365188956        0.9418093261
  S        11.8068530696       -2.1923025378        0.9425859665
  N        12.3728362501       -1.6799638619       -0.5307445407
  C        12.7546313519        0.4787723215       -1.6438387908
  H        13.0749636771        2.6093358778       -2.2447906769
  C         6.1172088967        6.6407273450       19.9627005816
  N         6.1971873998        7.9786395578       20.0739634750
  O         6.7530908328        9.8825297414       18.8734877346
  H        17.7386657734        5.9581352107        4.5362031911
  H        16.9524160973        7.3728724576        5.0947842400
  C        17.5915931766        5.9856692296        6.6628219804
  H         6.3316405012        6.7293562020        0.1030836919
  H         4.6408501678        6.4720576034        0.6818001696
  C         5.4287953627        8.3525059964        1.2097614956
  C        12.9704566779       -0.1583964038       -2.9397705690
  S         5.5828803622        5.6772957587       21.3505114327
  C         6.1460888552        8.7030313962       21.3366708979
  H        16.8807085143        6.5013051843        7.2984961883
  H        17.4913215810        4.9222288554        6.8972571310
  C        19.0045934333        6.4762837679        7.0598069106
  H         6.0931332790        8.9220780644        0.5262099206
  H         5.6178520944        8.4806726099        2.2823218007
  C         4.0185766935        8.9717390800        0.9906906647
  H        12.9131263867       -1.2412657780       -2.8473975927
  C        13.4411361739        0.2425017438       -4.1579578932
  H         5.3361682781        8.3852912154       21.9611171765
  H         5.7177663214        9.7778449291       21.0995556743
  C         7.4573676918        8.7224284382       22.0968175161
  H        19.3409065113        6.0743463325        8.0299772451
  H        18.9000488978        7.5218391090        7.2153249868
  C        19.9710958820        6.2315223796        5.9016174730
  H         3.7567511766        8.8557097723        0.0158314115
  H         3.3283931908        8.3856939746        1.5636110038
  C         3.7945628654       10.4447134551        1.3458883172
  S        14.1912989726        1.7064001137       -4.6511980638
  C        13.3563298906       -0.8175482967       -5.1866067925
  H         8.2901658222        8.1621452477       21.6800954005
  H         7.3999686791        8.3411656154       23.1182864296
  H         7.7409280858        9.8027477819       22.1143601521
  H        19.9370379120        5.2172066237        5.4900228546
  H        19.8152546108        7.0000145307        5.0958716090
  H        21.0410683875        6.2664794002        6.1051968516
  H         3.2393670275       10.5995889095        2.2594568789
  H         4.7334799903       10.9012918024        1.5391795503
  H         3.2810975657       10.8697975890        0.5053407618
  C        14.4340026224        0.9663432847       -6.1619069322
  N        14.1681577743       -0.3608968571       -6.2212998630
  O        12.9745914147       -1.9950103369       -5.0335158743
  S        15.2609282308        1.6719256075       -7.5677325292
  C        14.3589068602       -1.1422734355       -7.3885873787
  H        14.4734909058       -2.1319662202       -6.9977996275
  H        15.4214406639       -0.8769535407       -7.5905452887
  C        13.2029939348       -0.9960585324       -8.4153345226
  H        12.2510122428       -0.9049149121       -7.9534936200
  H        13.2282221270       -1.8531100799       -8.8701247796
  H        13.3815355925       -0.1469902497       -9.1046894539
