352
 i =   123500, time =    61750.000, E =        98.8229362215
  H         9.5621451003        6.0340706079       31.7649311486
  C        10.5590594944        6.4057764517       32.1108948060
  H        10.2317664599        7.4457981393       32.3443360890
  C        11.4248011161        6.1945707217       30.8692192825
  C        11.0301234815        5.5477871326       33.3355165914
  C        10.9128738118        5.1685292598       29.8823763830
  H        11.4322544064        7.1525679299       30.4224113372
  H        12.3530837834        5.8042072870       31.2410453142
  H        10.7266990402        6.1247404052       34.2072758246
  H        10.4969387855        4.6122439309       33.2560552224
  H        12.0773124659        5.3026829174       33.3783778997
  C        11.5639029864        5.4389906878       28.5159383389
  H         9.8817965126        5.2627352834       29.6424333484
  H        11.0177472947        4.2070297838       30.2571946319
  C        10.6462606166        6.2657780167       27.5466691553
  H        12.5695564658        5.7905569230       28.6197443596
  H        11.6953984532        4.4260503640       28.1308348437
  C         9.6557655439        5.3892564121       26.7695457747
  H        11.4261708805        6.6978570960       26.8865413374
  H        10.1191937687        6.9719070516       28.1467003056
  C         8.3139563774        6.1248686095       26.5766226301
  H        10.1399022180        5.2433167854       25.8102547163
  H         9.5669746691        4.3303037600       27.1034158786
  C         7.1861045654        5.2826490974       25.7552934412
  H         7.9106227221        6.4468293185       27.5573735244
  H         8.5729221641        7.0099957515       26.0692676126
  C         6.9627830899        3.8869088569       26.4151349218
  C         7.5605604934        4.6247317907       24.4770891359
  C         5.8897262168        6.1263933241       25.5646952124
  C         7.1609663182        2.7960474774       25.5938686161
  C         6.5229286871        3.4183665613       27.6747134978
  C         7.5737068146        3.2449627800       24.3505687038
  C         8.0444670593        5.2704592647       23.2948122648
  H         5.9695586733        6.7290976156       24.6859355078
  H         5.7347638403        6.7079869176       26.5008073580
  C         4.7012096190        5.2139737115       25.3387988432
  S         6.9767921880        1.2590764427       26.2454049843
  C         6.4399198898        2.0474727761       27.7017505111
  H         6.3505273408        4.1331741455       28.4074127968
  C         7.9481034797        2.7059790510       23.1626498812
  H         8.0483585660        6.3254860859       23.2850563460
  C         8.3999883257        4.6867651257       22.1512517556
  H         4.7793966961        4.5977549856       24.4378196693
  H         4.4197140116        4.4752834765       26.1183403302
  C         3.4447424588        6.1055341671       25.1294209981
  C         6.0011669815        1.2976758414       28.8762810250
  C         8.3823310982        3.3299948105       22.0642439144
  H         7.9314314549        1.6588498364       23.0191447595
  C         8.7546991111        5.0873330695       20.8689323019
  H         2.6897552436        5.4752249473       24.6032882618
  H         3.4899479303        6.9640427631       24.5177428275
  C         2.7131595714        6.4382823561       26.4900285538
  C         5.9748810787       -0.0864955525       29.0678889556
  C         5.3847850524        2.0991218900       30.0318389885
  C         8.8575688091        2.6309851603       20.7855351117
  C         9.1034212656        4.0058442086       20.1111025538
  S         9.1805342971        6.5686425578       20.1472700680
  H         2.1148249894        7.3595199414       26.4493432744
  H         3.5416986901        6.7604469063       27.1964965006
  C         1.7984546835        5.2829562584       27.0498481717
  N         6.2104977303       -1.0012786256       28.0584037197
  C         5.6366157799       -0.7024661760       30.2493125853
  C         5.2013951881        1.5186018699       31.2643247979
  H         5.0248917692        3.1173869679       29.9595934553
  C         7.7674515029        1.8224808721       19.9771956870
  C        10.2105320121        1.8339780331       20.9402538381
  C         9.6129679516        4.3660084617       18.8780058530
  C         9.6750271378        5.7124141131       18.7080923796
  H         1.1961239747        4.8836437568       26.2611901537
  H         2.4456522127        4.4766310076       27.3213888045
  C         0.9110130012        5.7733540805       28.2166333023
  S         6.2788271528       -2.4826845901       28.7077704758
  N         5.7260748794       -2.0764149834       30.1815392929
  C         5.3064564678        0.0188453923       31.4405123589
  H         4.8992921583        2.1118359385       32.0740523818
  H         7.1770686307        1.2381610228       20.6475001707
  H         8.0984259875        1.2429131155       19.1035931131
  C         6.6861208530        2.7710267738       19.2960599462
  H        10.6207616816        1.4934572733       19.9701491489
  H        10.0872550052        0.8842170621       21.5202714094
  C        11.3335758918        2.6708196023       21.6341531493
  H         9.9156806023        3.5101760779       18.2163561452
  C        10.1609759559        6.4505306288       17.4814260941
  H         0.1167830211        5.0745050208       28.2364145597
  H         0.4599465466        6.7144120648       28.0136595786
  C         1.5565393648        5.9273370414       29.5141365235
  C         5.1202058551       -0.6703705002       32.6662278776
  H         7.1974197673        3.2528480728       18.3943797947
  H         6.3997494362        3.5974701932       19.9458241547
  C         5.3615838657        2.0345818255       18.9144595136
  H        11.0409626787        3.0331587078       22.6233181157
  H        11.5659957301        3.5669308135       21.0770909465
  C        12.6454174271        1.9151561705       21.7730737269
  C        10.1973919715        7.8398638039       17.3047894705
  C        10.5755613902        5.5992301146       16.3627648406
  H         1.4586368798        6.9417154502       29.8613096709
  H         0.8256950376        5.3910577802       30.1372186859
  C         2.9111549221        5.2761091558       29.5962627388
  H         5.2189143486       -1.7321655969       32.5321230072
  C         4.7639560957       -0.1659025868       33.9414924057
  H         4.8733145747        1.6974775122       19.8313371397
  H         5.5942919592        1.1855787455       18.3529657370
  C         4.4095740295        2.9108013292       18.0210893627
  H        12.4182920419        1.1506406937       22.4541953442
  H        13.0961878344        1.3571678256       20.9352142082
  C        13.6910398766        2.7744463362       22.3590156348
  N         9.7023189546        8.7689438573       18.2773745251
  C        10.5034739729        8.4241916517       16.1103449390
  C        10.8815159302        6.1602665970       15.1530433363
  H        10.5727878953        4.4988566995       16.4250329946
  H         3.2675976354        5.1293203264       30.6346760071
  H         3.0447845532        4.2389076656       29.3169270250
  H         3.7287281951        5.9327063631       29.2763806876
  S         4.3969284239        1.3636586034       34.4468490952
  C         4.7070950004       -1.1121857949       35.1254658747
  H         4.6109026946        3.9732517105       18.1604684894
  H         4.7907136147        2.9294864445       17.0128316136
  C         2.8746126725        2.6385564229       18.1124299290
  H        13.2325414174        3.2520416742       23.2590347370
  H        13.9633394493        3.5313041883       21.5738332190
  C        15.0385116327        2.0209218454       22.6609079214
  S         9.8052929735       10.1926737060       17.5758939724
  N        10.3287504342        9.8333834012       16.1299776502
  C        10.8449481857        7.6291633641       14.9566229235
  H        11.0728405888        5.5180988510       14.3310003942
  C         4.1606804697        0.8158238993       36.0997429732
  N         4.3538760589       -0.5174303357       36.2576940118
  O         5.1121965136       -2.2822127202       34.9955866915
  H         2.3016760183        3.1893808030       17.4344982673
  H         2.4040521803        2.9359269330       19.0699040583
  C         2.5490742068        1.1947379991       17.7319788639
  H        15.0257462702        1.6921748304       23.6806603189
  H        15.1530455301        1.1572999552       22.0680347979
  C        16.1785511540        3.0026021560       22.5010650213
  C        11.1433784477        8.2961142010       13.7160824933
  S         3.6298909850        1.8056829694       37.5518624407
  C         4.3550048444       -1.1864120189       37.5649490932
  H         1.6487972167        1.0828073878       17.0950960237
  H         3.4134409908        0.7448996266       17.2440627232
  C         2.1880580346        0.2738624610       18.8415212877
  H        16.0919169891        3.9876970245       22.9166707157
  H        16.3475626201        2.9729237029       21.3918005362
  C        17.4250069094        2.3030186470       23.0240064687
  H        10.9904549292        9.3810513008       13.7597205249
  C        11.5164702399        7.8213293447       12.4715873336
  H         3.6519783966       -0.7251216474       38.2568857833
  H         4.1506948760       -2.2296806146       37.3844185512
  C         5.7595138311       -1.1426285239       38.1810628730
  H         1.1562405626        0.4445317835       19.0603421251
  H         2.7267329679        0.3832607483       19.7564695696
  C         2.1067801346       -1.1902325809       18.3558519009
  H        17.7477295795        1.5082587195       22.4204485708
  H        18.2533682942        3.0139051237       22.9891232637
  C        17.2955798820        1.9305532555       24.4264917409
  S        11.9484936822        6.1565446796       12.0968264430
  C        11.7463255898        8.7835635595       11.3530957880
  H         5.7781802080       -1.8415343589       39.0246117023
  H         6.6295389000       -1.2978899230       37.4831335109
  H         6.0122522161       -0.2099135488       38.7110006635
  H         3.0375939432       -1.7117392886       18.2146133276
  H         1.5266087494       -1.3276412168       17.4368084164
  H         1.6612611941       -1.6398411162       19.2781439895
  H        16.8035306392        0.9609562639       24.5864891004
  H        16.7318392413        2.7040523768       25.0060328967
  H        18.3329313303        1.7909221751       24.8958380492
  C        12.4881168127        6.8344442254       10.5739057943
  N        12.3677618113        8.1699391016       10.3592958210
  O        11.4413034144        9.9805730373       11.4037659672
  S        13.1127677684        5.9193974719        9.2618449625
  C        12.7944038007        8.9161973757        9.2126595192
  H        12.9361376175        9.9572927775        9.3332865527
  H        13.7718646420        8.7468091003        8.8941203492
  C        11.8196424377        8.7157628375        8.0098736438
  H        11.0658532293        9.5416163768        8.0823433758
  H        12.2694459273        8.8283630540        7.0502067509
  H        11.3970458763        7.7290116996        8.1346711725
  H         3.1342665891        3.8587518868       12.0600469347
  C         3.0300531964        2.8048953115       12.2235070686
  H         2.1607748923        2.6857267842       12.9460487893
  C         2.8917265010        1.9239026551       10.9387666654
  C         4.2568994173        2.4021867108       13.0015215909
  C         3.9002641009        2.4626447623        9.8492770800
  H         1.7789865006        1.9488257169       10.6543383366
  H         3.1848868170        0.9337134819       11.2598004805
  H         5.1060021100        2.3897674106       12.3236246997
  H         4.1620986772        1.3967545408       13.5529259712
  H         4.3393074680        3.0064126055       13.8834066515
  C         4.6766090696        1.3085876900        9.2119585806
  H         3.3009027143        2.8329522777        9.0352252133
  H         4.5367956459        3.1622139871       10.2748083324
  C         5.5971814122        1.6461754305        8.0279262261
  H         3.8789353000        0.6416217612        8.9018912036
  H         5.2984151859        0.7949356306        9.9524283011
  C         6.8389390049        2.4628512307        8.4172464324
  H         4.9800855934        2.0953366235        7.1442312345
  H         6.0172521295        0.6999726345        7.6916644376
  C         8.0206664857        1.6370768301        9.0751442945
  H         7.2253166553        2.8479660848        7.4949752063
  H         6.4668899853        3.2343874784        9.0841399371
  C         9.2632875374        2.5475865713        9.2725052864
  H         8.2719638524        0.9354375854        8.3217138731
  H         7.7137104037        1.1360198234       10.0070020065
  C         8.9524765851        3.9390093934        9.9127402258
  C         9.8266123466        3.2959422919        8.0429916486
  C        10.4817588173        1.8360175960       10.1021239885
  C         9.2520805350        5.0332086250        9.1598609976
  C         8.4503374677        4.2996374481       11.1690512094
  C         9.7459036430        4.6440441376        7.9498298756
  C        10.2717389369        2.7812239528        6.8025113792
  H        10.0752146496        1.5875066406       11.1340781416
  H        10.8302944488        0.9336525325        9.5736725552
  C        11.6070764918        2.7904327280       10.4121015513
  S         8.9282582704        6.5194495842        9.9160082265
  C         8.4516265094        5.6950396742       11.3126853522
  H         8.1235459348        3.4895599567       11.8269855645
  C        10.1210889906        5.3519206603        6.8464168830
  H        10.2293786755        1.6868702769        6.6973102307
  C        10.6759450648        3.4620111193        5.7046432948
  H        11.1998187075        3.6752568751       10.8886119626
  H        11.9989750230        3.2443051721        9.5319459959
  C        12.6205400883        2.2624124871       11.4416618509
  C         7.9814309075        6.4056448510       12.5429561428
  C        10.5433843162        4.8209828773        5.6643048689
  H        10.1234073531        6.3791139406        6.8003872672
  C        11.0623532056        3.0562328618        4.4714228613
  H        13.4953540797        2.8810769787       11.3325620385
  H        12.8638967659        1.1685873391       11.2925519459
  C        12.0071094318        2.4042171099       12.8626277207
  C         7.8916193619        7.7744234794       12.6811492207
  C         7.6223333562        5.6069102864       13.7297338974
  C        10.9996600655        5.5705058766        4.4528979782
  C        11.2891281854        4.2078161604        3.7458876583
  S        11.3330018408        1.5940239882        3.7167117884
  H        11.4323277167        3.3531057369       13.0794934615
  H        11.1958775321        1.6026750442       12.9661318415
  C        13.0568691549        2.1559457159       14.0013144943
  N         8.0014891782        8.6927358974       11.6911167967
  C         7.6271939515        8.4118413403       13.9288210526
  C         7.3207303299        6.1371138990       14.9418397036
  H         7.7777802992        4.5586316137       13.5806224917
  C        12.1850807730        6.4038715278        4.6650995138
  C         9.8978283720        6.2300759743        3.6743547116
  C        11.7243903280        3.8049113876        2.4838235514
  C        11.6692300945        2.4272120719        2.3108173271
  H        14.0409466237        2.5845583457       13.8885666106
  H        13.3962430202        1.1567328158       13.8898704216
  C        12.3907270428        2.2896095154       15.3241032156
  S         8.0283991643       10.1854445055       12.3490396305
  N         7.7878674728        9.8035604506       13.9064221954
  C         7.3249673043        7.6502065413       15.0858983438
  H         7.0108153548        5.4497955265       15.6885087926
  H        11.8758211083        7.0356649680        5.4506962609
  H        12.4199519460        7.0666812060        3.7967131899
  C        13.3936080470        5.5777560790        5.0257586149
  H         9.6050701804        7.0708649977        4.2728877242
  H        10.4076103456        6.7077653171        2.8402040854
  C         8.6935327641        5.3787756936        3.1837935868
  H        11.8218698452        4.5095722715        1.6845447721
  C        11.8688023837        1.6665018992        0.9978252074
  H        11.9737206864        3.2853668135       15.3880463973
  H        11.6100898935        1.5321031200       15.2684572427
  C        13.2222576564        1.8011850719       16.5304077575
  C         6.9080974076        8.3262803760       16.2420926809
  H        13.1396353676        4.7521811908        5.7008393276
  H        13.8216026277        5.1222394060        4.1969935422
  C        14.4613772732        6.3678322271        5.6576502035
  H         8.1066474077        5.0403059379        4.0495325080
  H         9.0048683679        4.4861379142        2.6279757500
  C         7.6544817685        6.1451094002        2.3893230914
  C        11.8085500684        0.2610943447        0.8453201152
  C        12.0756920413        2.4361302753       -0.2756969508
  H        14.2957464759        2.0110427255       16.3920662551
  H        13.1166746978        0.6879167160       16.6444993589
  C        12.7229000900        2.4940094487       17.8322862504
  H         7.0648622957        9.3572214420       16.2358309589
  C         6.4806332914        7.9870022630       17.5084377290
  H        14.1278903797        7.0475910685        6.4330426304
  H        14.9188605198        6.8748055874        4.8064722192
  C        15.4592336308        5.4042939146        6.3089221141
  H         7.2579800761        6.9919954231        3.0693102139
  H         8.0759294040        6.4582601926        1.4487369255
  C         6.4814995217        5.2031092483        2.0298566888
  N        11.5778921999       -0.7047283856        1.8330329422
  C        12.0925488694       -0.3005691091       -0.3864140029
  C        12.3026996206        1.8689264340       -1.5589168751
  H        12.2271558970        3.4452443497       -0.1213734877
  H        11.5973731967        2.4466766122       17.9940241140
  H        13.0416355422        3.5157075157       17.7064851590
  H        13.2024227947        2.0069729487       18.7063897120
  S         6.1508464658        6.3754122143       18.1150548171
  C         6.4487973917        8.9839523808       18.6365101574
  H        14.9140509601        4.8809047413        7.1182244647
  H        15.8870669050        4.5732440484        5.6753786114
  C        16.6936556483        6.1633894346        6.8825602030
  H         5.9473879452        5.0226994680        2.9221349692
  H         6.8421632810        4.2166821816        1.7457866021
  C         5.5602516692        5.7014290861        0.9849178254
  S        11.5680791703       -2.2142432228        1.1629233964
  N        12.0751724592       -1.7315355406       -0.3115239632
  C        12.3255374208        0.3849122093       -1.5867025165
  H        12.5505912511        2.4331371059       -2.4273549944
  C         5.9963160485        7.0741441417       19.7201715255
  N         6.0605793589        8.3964056648       19.8132650848
  O         6.7419335429       10.1428290424       18.4055572594
  H        17.1080891548        6.6708124214        6.0160407901
  H        16.3643203480        6.9363956910        7.5836192396
  C        17.8303318029        5.3258915756        7.5028129205
  H         6.1322587885        5.9446462591        0.0950285699
  H         4.9416105001        4.8897198782        0.6652524524
  C         4.6135220434        6.7868454644        1.4134356842
  C        12.6051595673       -0.4063016473       -2.7042664107
  S         5.4350942885        6.1596277522       21.1705970201
  C         5.9979692689        9.0921353852       21.0791697449
  H        17.5142984214        5.0008086194        8.5021401739
  H        18.0801747766        4.4297241223        6.8500642090
  C        19.0830690665        6.0810034659        7.6765519203
  H         4.4526646725        6.7238822806        2.4958713858
  H         3.6874093492        6.6004779510        1.0273051822
  C         5.2330870009        8.1455132763        0.9763022522
  H        12.1653111596       -1.3439764534       -2.6140103886
  C        13.0628778151       -0.0669892379       -4.0061914372
  H         5.2162319810        8.7494501126       21.7078659940
  H         5.6110808092       10.1232615049       20.8415110871
  C         7.3801679617        9.2795820881       21.7825099701
  H        19.4720183294        5.7755490127        8.5778754176
  H        18.8435634021        7.1299719983        7.7931656709
  C        19.9774613300        5.9030472540        6.4616123494
  H         6.0819306334        8.3023790031        1.5674852439
  H         5.5308435828        8.0715967141       -0.0160331181
  C         4.4290161747        9.3853343181        1.1370138791
  S        13.6195449341        1.4004480478       -4.5584741022
  C        13.1399627380       -1.2015351674       -4.9564063876
  H         8.1639055994        9.2767029781       21.0250608825
  H         7.4430961838        8.4047788611       22.4778110070
  H         7.4994679053       10.3124165877       22.2337046056
  H        19.4523300524        5.9988092238        5.5182038037
  H        20.8199839175        6.5809253697        6.3554732442
  H        20.2896883766        4.8543630818        6.4214469192
  H         4.9153446981        9.9333826455        1.9019546222
  H         4.5131412398        9.9612017823        0.1713267083
  H         3.3830830727        9.1174383145        1.3110160561
  C        14.0553221877        0.5656229858       -6.0073217286
  N        13.7953600905       -0.7668199060       -6.0622397725
  O        12.7337022437       -2.3731139163       -4.6765776156
  S        14.5425570403        1.4631715732       -7.4153058010
  C        13.8834792546       -1.5876187692       -7.2890567432
  H        14.1752521690       -2.6233696623       -6.9536461862
  H        14.7316459449       -1.2107668162       -7.9391554832
  C        12.4697155025       -1.6582381129       -7.9419088480
  H        12.5781695801       -2.2478816834       -8.8568068651
  H        12.0540951483       -0.6768873636       -8.1864459275
  H        11.6995677909       -2.0665892268       -7.2891911798
