352
 i =    30500, time =    15250.000, E =       100.5813611455
  H         9.6363462625        5.0222371892       31.8365482394
  C        10.0831525191        5.8741605815       32.3518541948
  H         9.1974381659        6.5147885210       32.5209178765
  C        11.1952896712        6.5237146610       31.4833036241
  C        10.6583248605        5.4846903390       33.7183553276
  C        11.3570937264        5.8989009610       30.0848727250
  H        11.0211450200        7.4932464982       31.2936421902
  H        12.1098088354        6.3986752303       32.0163534072
  H         9.9195515331        5.4692178555       34.3931324226
  H        11.1934752340        4.5081167651       33.7528302335
  H        11.3272771885        6.2013057795       34.0956161228
  C        10.1207776752        6.0210392962       29.1666977125
  H        11.7054699916        4.8612614112       30.2224435925
  H        12.2148138340        6.5004833781       29.6652454033
  C        10.4979537946        5.8105373454       27.7070937976
  H         9.2650255077        5.3916153083       29.5382424477
  H         9.6735555041        7.0029565568       29.1830060411
  C         9.4112878656        4.9759434566       27.0086905835
  H        11.4637608123        5.2973428063       27.6357202595
  H        10.5682944586        6.7315805516       27.1373124012
  C         8.2610629878        5.8388573915       26.3984910091
  H         9.8849046016        4.4713915599       26.1802081177
  H         9.0362290320        4.2093246700       27.7335275596
  C         7.1177515830        5.0645802484       25.6830904762
  H         7.8801440694        6.2560141900       27.3553701801
  H         8.6941120715        6.5501063155       25.6857245165
  C         6.7068849620        3.6802296329       26.2980957613
  C         7.5363354151        4.3387037554       24.4159890888
  C         5.9338606642        5.9249641717       25.4888115743
  C         6.8959492161        2.6043323923       25.4626514385
  C         6.1098001374        3.2598001207       27.5354365668
  C         7.5043138189        2.9879770499       24.2575993160
  C         7.9836192959        4.9953157739       23.2183688210
  H         6.1180778120        6.7200338114       24.8182354787
  H         5.6173127439        6.3468255052       26.4098509118
  C         4.6157446085        5.3008019382       24.9268187856
  S         6.4098953455        1.1420261289       26.1171209422
  C         6.0735132155        1.8987859201       27.6483976710
  H         5.8809232553        3.9754647169       28.2917445808
  C         7.8282918863        2.3587305598       23.0998929185
  H         7.9336918586        6.0563552193       23.2210387363
  C         8.4028643545        4.3834160579       22.0357416209
  H         4.7532159948        5.0202518422       23.8990343672
  H         4.4300301179        4.2856966688       25.3562403877
  C         3.3958946993        6.2957171241       25.0217675569
  C         5.6625537315        1.1391519494       28.8911776862
  C         8.3494910254        3.0046430512       21.9395426556
  H         7.5408883133        1.3583667493       23.0142939737
  C         8.8301616801        4.7951773372       20.7615705700
  H         2.5981104202        5.9188084207       24.3276192123
  H         3.6364149160        7.2517745864       24.7151885158
  C         2.6974384965        6.4080161600       26.4000510427
  C         5.5805866647       -0.2453109561       29.0527432466
  C         5.4449334591        1.9879772740       30.1110650709
  C         8.6814419404        2.3940885663       20.6353205785
  C         9.0289586552        3.7277207741       19.9392913783
  S         8.9480443487        6.3608069300       19.9827992615
  H         2.0342834750        7.2805368088       26.3767686297
  H         3.4287289609        6.6819629806       27.1588547006
  C         1.8745601965        5.1870927049       26.8128062462
  N         5.7195192585       -1.1423080803       28.0327588337
  C         5.3188949923       -0.8895052895       30.2877850656
  C         5.1098143944        1.3844321025       31.3033427371
  H         5.4429268362        3.0757103613       30.0490399795
  C         7.4400275635        1.7418283441       19.9840470970
  C         9.9277761136        1.5342150564       20.4306163782
  C         9.5699633985        4.1299990294       18.7367103686
  C         9.5782169380        5.5044533018       18.6030513628
  H         1.2486431737        4.7683833102       26.0634072629
  H         2.6236205444        4.3775353106       26.9997339651
  C         1.0961305548        5.2862791510       28.0741041818
  S         5.8445372283       -2.6167548761       28.6486325746
  N         5.4556819070       -2.3000516537       30.1884866126
  C         5.0768610899       -0.1155370506       31.4343466599
  H         4.8693846315        2.0137949122       32.1469103993
  H         6.9577530954        1.0330070024       20.6375835014
  H         7.7569321412        1.1440887103       19.1257347274
  C         6.2575904176        2.6302981448       19.6137705024
  H        10.0385518917        1.3777568593       19.2932679029
  H         9.6757994013        0.5197641449       20.7258057414
  C        11.2016580154        2.0234849817       21.1704160004
  H         9.8964095085        3.3403042239       18.0711737601
  C         9.9698160505        6.2509165479       17.2875189993
  H         0.6530653433        4.3052079238       28.1752809730
  H         0.2580080310        6.0393427646       28.0454242632
  C         1.9486941834        5.3472608193       29.3603080286
  C         4.8270986246       -0.8757393562       32.6727570942
  H         6.5165639486        3.6341186576       19.3091962181
  H         5.6665424205        2.6887899585       20.5523724553
  C         5.5248738925        2.1334355270       18.3813179103
  H        11.1628418922        1.9132892748       22.2663957882
  H        11.3263749819        3.0880376613       20.8429672529
  C        12.5014986491        1.3398350984       20.6629580780
  C        10.1259303189        7.6639736624       17.1437503423
  C        10.1797224360        5.4287346492       16.0459404576
  H         2.6399155820        4.5447931852       29.2294104715
  H         2.6192455532        6.2424537977       29.3670715213
  C         1.1948664307        5.2464058248       30.6870779958
  H         5.0211033342       -1.9636990459       32.6000663631
  C         4.6168517198       -0.4212411741       33.9952569254
  H         5.7289704389        1.0714833283       18.1228612740
  H         5.7509212510        2.8042292916       17.5176928956
  C         4.0246312894        2.3482707861       18.6627851606
  H        12.6166206890        0.3114377434       20.9746404702
  H        12.3660648122        1.3064917176       19.5738534679
  C        13.6906046955        2.1106064000       21.0479993085
  N         9.9267472266        8.5834359339       18.1650462879
  C        10.3790471492        8.2809054653       15.9423731471
  C        10.5192060556        6.0895175222       14.8785016219
  H        10.1576106534        4.3627296055       15.9803047382
  H         0.7022535076        4.3527083888       30.7891427024
  H         1.8823271588        5.4612244153       31.4887816722
  H         0.3981047780        5.9962462340       30.6191178648
  S         4.3358044838        1.1926100204       34.5167677093
  C         4.6140644798       -1.3966352852       35.0898450110
  H         3.9525235432        3.1667135990       19.4010664163
  H         3.7526196304        2.7589802630       17.6702432782
  C         3.3537683534        0.9928623558       19.0039296451
  H        13.6300006112        3.1475822517       20.6603710705
  H        14.5058577159        1.5987588341       20.6125517018
  C        13.8724875867        2.2189475711       22.5475627593
  S         9.8979600414       10.1065596922       17.5787860718
  N        10.3147979840        9.7242441164       16.0720653612
  C        10.6794577397        7.5808761673       14.7305200015
  H        10.7142487581        5.4541836005       14.0236594536
  C         4.1084905837        0.5119413770       36.1310650436
  N         4.2875486676       -0.8045823110       36.2582795122
  O         4.7643089001       -2.5980149179       34.9859382821
  H         2.3465429339        1.2391092719       19.2870780120
  H         3.8403650245        0.3979748994       19.7219313737
  C         3.1851785671        0.1399108085       17.8050153674
  H        13.2965352593        3.0344423777       22.9279328371
  H        13.4362979113        1.3990712134       23.1490843376
  C        15.2882506129        2.5283915447       23.0522108037
  C        10.8269519512        8.2297288931       13.5321495616
  S         3.6824524969        1.4246985273       37.6320731552
  C         4.3849773896       -1.5578409135       37.5589700874
  H         2.9712143089        0.8024855662       16.9295670760
  H         4.1690344623       -0.2935132288       17.5618857761
  C         2.1890547512       -1.0134874316       18.0861960559
  H        15.2341581523        3.2302715053       23.8650940374
  H        15.8116968764        2.9964466205       22.3187459830
  C        16.0746862887        1.2652976833       23.4107375233
  H        10.6955241810        9.3440798666       13.5318013180
  C        11.2598448020        7.8130393162       12.2967650276
  H         3.6844651247       -1.2983640998       38.3313110429
  H         4.1478109707       -2.6061229991       37.4210475920
  C         5.8206515651       -1.4836099848       38.0103093533
  H         1.2783241031       -0.5252115008       18.3109606938
  H         2.5157570583       -1.5679585737       18.9665392609
  C         2.1272089052       -1.9221229646       16.9114080910
  H        16.1329078709        1.1784312518       24.5044915993
  H        15.6016945332        0.3661175782       22.9903673248
  C        17.4784544414        1.2663097083       22.9599479179
  S        11.7544726849        6.2055841258       11.8910404394
  C        11.4854871760        8.8734596070       11.2625321164
  H         5.8378974058       -0.8385232875       38.8699322922
  H         6.2225979358       -2.4053721574       38.4096832515
  H         6.5637593476       -1.1309540878       37.2541290957
  H         1.8619122546       -1.3202107082       16.0201067117
  H         1.4629224754       -2.8006092428       17.0255958928
  H         3.1116087551       -2.4022204285       16.6374662349
  H        18.2020818233        0.8943244576       23.6645414085
  H        17.7549628951        2.3455402418       22.7574824744
  H        17.6444169665        0.6777341112       22.0854824692
  C        12.1672119106        6.9052167419       10.3467701665
  N        12.0132812502        8.2404719339       10.1754203119
  O        11.0747008588       10.0717862259       11.3992634040
  S        12.9115948105        6.1447865970        9.0295777471
  C        12.2789289809        8.9990786226        8.9672099398
  H        12.3486169326       10.0579827775        9.3418595845
  H        13.2015541426        8.7362943994        8.4573514427
  C        11.0556452292        9.0519654640        8.0794776760
  H        11.3226276629        9.6281045663        7.1749260237
  H        10.7963870440        8.0548539297        7.8043484908
  H        10.2171439439        9.5496287063        8.5554430446
  H         4.0883417409        1.1925838542       12.7002301204
  C         3.8097319326        2.2092443112       12.9041854929
  H         4.7509840512        2.7060715957       12.9836898868
  C         2.9700389622        2.6854933902       11.6752979023
  C         3.0472315915        2.3403739610       14.2353904576
  C         3.7970437161        2.8648125396       10.3839552706
  H         2.4366180716        3.6494353779       11.9324912213
  H         2.1746446002        1.9225849781       11.5509320513
  H         2.4811987833        3.2417504038       14.1601676792
  H         3.6141398666        2.6080395984       15.1204244164
  H         2.5274517945        1.3880799270       14.2682415826
  C         4.4901070132        1.6519964310       10.0842618363
  H         3.1784050942        3.0876183228        9.4811488003
  H         4.6305471870        3.6055710420       10.4893179291
  C         4.9686057950        1.5480788667        8.6505999464
  H         3.7457868559        0.8409240927       10.2578527355
  H         5.3436142645        1.5535961170       10.8231165193
  C         6.2920436646        2.2803378938        8.5212451305
  H         4.2578883285        1.8040626257        7.8564179847
  H         5.0376662680        0.4517141539        8.5948391719
  C         7.5928694783        1.5703706596        8.9974109911
  H         6.4211587092        2.3829483767        7.4606411201
  H         6.1412612838        3.2432744572        8.9840735005
  C         8.7797431436        2.6428331980        9.2635271140
  H         7.9355422864        0.7652791229        8.3344010175
  H         7.3669020258        1.0675077033        9.9932862454
  C         8.3544530484        3.9317726558        9.9828394319
  C         9.2065598401        3.3583397383        8.0712936322
  C         9.9689961699        1.9949964960       10.1153327374
  C         8.7352325292        5.0938738944        9.2644814217
  C         7.6965041851        4.3143104434       11.2026744279
  C         9.1617170240        4.7143292831        7.9915124840
  C         9.8310612492        2.7222651920        6.9636780600
  H         9.6765718292        1.4882585629       11.0064478825
  H        10.4602662403        1.1565015436        9.5599177732
  C        11.1640373731        2.9593530557       10.3963521879
  S         8.4385359114        6.5289893486       10.0903016794
  C         7.8199672709        5.6915100840       11.4132078357
  H         7.3323022307        3.5689677487       11.8960720647
  C         9.6552155431        5.3098418118        6.8615218904
  H         9.8963024182        1.6422770908        6.9622344825
  C        10.4036218250        3.3249806889        5.9073469582
  H        10.9105157548        3.8262715218       11.0196943737
  H        11.4852593287        3.2580655441        9.3530953296
  C        12.3464859406        2.2361292931       11.0380849771
  C         7.4878762086        6.3100621585       12.7652553325
  C        10.3005767935        4.6554489969        5.8188269252
  H         9.5152699564        6.3924151545        6.7901829106
  C        10.8866140865        2.8952166479        4.7087134217
  H        13.1953011770        2.8781529999       10.9151226278
  H        12.5957510354        1.3269679115       10.4246342888
  C        11.9867634756        1.9065483023       12.4663250743
  C         7.6158715600        7.7002969764       13.0617106647
  C         7.1519852417        5.4161406242       13.9269082316
  C        10.7737154845        5.3225137283        4.5971324395
  C        11.0448150878        3.9740424940        3.9139317053
  S        11.0066699508        1.4152482661        3.8972687006
  H        11.4386524767        2.7532730896       12.8700443944
  H        11.2125381636        1.1732504714       12.5359110060
  C        13.1919436990        1.6678544230       13.3654368825
  N         7.9379858785        8.6787289155       12.1776059097
  C         7.2667460486        8.2139988972       14.2846306950
  C         6.8571505419        5.8998134546       15.1726918852
  H         6.9155548664        4.4034615578       13.7930665813
  C        12.0240394711        6.1287445492        4.9810700196
  C         9.7121506815        6.1771543753        3.9140872258
  C        11.5048578613        3.6439977708        2.6357229299
  C        11.4341758132        2.2987121473        2.4575532134
  H        13.6715456032        2.5881266483       13.5261860217
  H        13.8689735364        1.0260537994       12.7870990414
  C        12.9400255131        1.0295494698       14.7265383446
  S         7.8919074048       10.1433058551       12.8697513136
  N         7.2440830964        9.6006301560       14.2380706418
  C         6.8991427294        7.4044969712       15.4095739780
  H         6.5378129384        5.1606466489       15.8966254220
  H        11.8934123804        6.8442692056        5.7896410584
  H        12.3877275369        6.6476877410        4.1467630627
  C        13.1789925840        5.2348017675        5.4211777707
  H         9.3431684376        6.9972279652        4.5728237500
  H        10.1696696836        6.6658763407        3.0423778040
  C         8.5190222775        5.3807779110        3.3684478019
  H        11.6233049085        4.4431735390        1.8885703723
  C        11.7190130716        1.6239002425        1.1475519417
  H        12.4119577123        0.1053195765       14.8081480054
  H        13.9799706777        0.7144273509       14.9735600842
  C        12.6001721671        2.0387277936       15.8584131673
  C         6.5318674868        8.1382525260       16.6210435629
  H        12.8872606261        4.6684738754        6.2923010001
  H        13.5730790227        4.4938226685        4.6690979323
  C        14.4619335592        6.0093603018        5.7713112769
  H         7.9007364167        4.9660784091        4.1951743935
  H         8.6889462938        4.5398613706        2.7729221612
  C         7.6866306021        6.2421337364        2.4072164437
  C        11.7965150044        0.2302765539        0.9322750044
  C        11.8406603824        2.3776984633       -0.1381116478
  H        11.6535946982        1.7804210089       16.3242063694
  H        12.2644653407        2.9072253424       15.3230828261
  C        13.7073197268        2.2877664169       16.9197804346
  H         6.7017086152        9.2047943160       16.6074109669
  C         6.2033992367        7.7260565015       17.8701796114
  H        14.1480718827        6.9698661125        6.1750827349
  H        14.9552013998        6.0913578436        4.8169914097
  C        15.4037838746        5.1674773497        6.6505379850
  H         8.3321302286        7.0600564741        2.0557771402
  H         7.4693601814        5.5728274902        1.5504005227
  C         6.4557065985        6.9598661943        3.0206101627
  N        11.4331196370       -0.7022340590        1.9213375034
  C        12.0093786851       -0.4137098244       -0.2723950663
  C        11.9993941045        1.7717480705       -1.3587010034
  H        11.7074149746        3.4662062358       -0.1608606280
  H        13.4277108156        3.1205037065       17.6932512071
  H        14.5811465383        2.6197448820       16.4881220949
  H        13.9195950734        1.4175981643       17.5363363179
  S         5.7606488689        6.1631553697       18.3698962077
  C         6.2452521913        8.8045948885       18.9917228227
  H        15.0950325203        5.1055864071        7.6803702760
  H        15.4001547539        4.1538532733        6.2893266210
  C        16.7559351581        5.8466531676        6.6377649643
  H         6.7624530099        7.4750776336        3.8905113754
  H         5.7593167811        6.1852574073        3.3045454244
  C         5.8021314648        7.9146635260        2.1508338417
  S        11.6614630428       -2.2117320445        1.3778923724
  N        12.0690717970       -1.8257505699       -0.1225819672
  C        12.1646398368        0.2763582490       -1.5001406861
  H        12.0103162122        2.3647424341       -2.3193760204
  C         5.7073929907        6.8660666281       19.9762379283
  N         5.8389913214        8.2224646574       20.1302355935
  O         6.5788120026        9.9236818995       18.8348725782
  H        17.0555093174        6.1837243228        5.6296843956
  H        16.5946631357        6.7487216322        7.1982438907
  C        17.8208853864        4.9278539338        7.1613699132
  H         6.5204756898        8.5322820839        1.5599018122
  H         5.2566760183        7.4316204272        1.3159734085
  C         4.8076721881        8.8049926719        2.8322575947
  C        12.4877017654       -0.3937675516       -2.7005076174
  S         4.9764468130        6.0893385457       21.2803077475
  C         5.9511094322        9.0113638868       21.3222969998
  H        17.4535142638        4.4614799826        8.0254301976
  H        18.0749986209        4.2240125085        6.3939249509
  C        19.0312253543        5.6739325324        7.6151286406
  H         5.1146779503        9.2780275690        3.7585599355
  H         3.8771720512        8.3085428684        3.1719599135
  C         4.5100898978       10.0594627224        1.9410120373
  H        12.4781293361       -1.4673851497       -2.5592111015
  C        13.1374927084       -0.0607720250       -3.8789132116
  H         5.3690658025        8.5536581714       22.0928114115
  H         5.5204239963        9.9905698872       21.1517615504
  C         7.3815805055        9.1659882230       21.6618936776
  H        19.4689393520        5.1279299852        8.4046079293
  H        18.7574924335        6.6647508392        7.9265503738
  C        20.0795402755        5.9037597926        6.5295971434
  H         3.8892360546       10.8279366573        2.4375192275
  H         5.4669659106       10.5237406967        1.6887616899
  C         3.6644259874        9.8257865311        0.6610637053
  S        13.4208562574        1.5016432226       -4.5227217266
  C        13.3993514138       -1.1741376615       -4.8865262199
  H         7.8967743020        8.2448039180       21.4920771559
  H         7.4066867371        9.3688872409       22.7545677139
  H         7.8048243000        9.9298270314       21.0733481919
  H        19.7528021121        6.7061812102        5.7945748229
  H        20.9855423651        6.2599461052        6.8500328724
  H        20.1731908680        4.9208803471        6.0990126573
  H         3.1060107917       10.7445113945        0.3541669549
  H         4.1057310624        9.3403628928       -0.1669264516
  H         2.8490024359        9.1545928636        0.9381483573
  C        14.1320244719        0.6989534321       -5.8904467556
  N        13.9807939585       -0.6127889325       -5.9338711326
  O        12.9473090424       -2.2945791755       -4.8158022543
  S        14.8099169178        1.5300340082       -7.2885586068
  C        14.3650000061       -1.3706905039       -7.1222166136
  H        14.6691372973       -2.4135012824       -6.8909758407
  H        15.2356011376       -1.1421390918       -7.6816238294
  C        13.1266853263       -1.5843040778       -8.0589076227
  H        12.9552132684       -2.6108446041       -8.2643023102
  H        13.3424218183       -1.1401436497       -9.0311867681
  H        12.1202322794       -1.2427601550       -7.8101674532
