352
 i =    29000, time =    14500.000, E =       100.5511171421
  H        10.4279376034        4.0713033592       31.8819603617
  C        10.4614650639        5.0501964177       32.4057691174
  H         9.4085295903        5.1573850264       32.6571322810
  C        10.8485390228        6.2018722154       31.5129143229
  C        11.2705213997        4.8210453733       33.6790537421
  C        11.4146627662        5.8008084983       30.1340120906
  H        10.1010441188        6.9078448218       31.3005635810
  H        11.6596836746        6.6018549105       32.0280600652
  H        11.2022958982        3.7219825515       34.0035106968
  H        12.2626131059        5.1527673514       33.5980387992
  H        10.9115228097        5.4963747249       34.4888896622
  C        10.3531483637        5.1596479478       29.3101781458
  H        12.3210584037        5.2435967996       30.2538125500
  H        11.7822857262        6.6427439210       29.6509236103
  C        10.6034023360        5.1959185446       27.7860068170
  H        10.2769302009        4.1356733272       29.6192032211
  H         9.4268767686        5.6320018322       29.5382738972
  C         9.5385392780        4.4726868385       26.9216195879
  H        11.6318192553        4.9056789405       27.6005912984
  H        10.5534021691        6.2092815854       27.4586574497
  C         8.4499342692        5.3390446539       26.2967400778
  H         9.9934411020        3.9345529323       26.0521476220
  H         9.1604432283        3.7487536439       27.5683533482
  C         7.3342364218        4.7047905341       25.5929857303
  H         8.1599108035        6.1465027568       26.9584890913
  H         9.0204670914        5.9304554941       25.5954109477
  C         6.9981820853        3.3721213103       26.2827956077
  C         7.7937401070        4.0279725629       24.3642622050
  C         6.1310163992        5.7515593950       25.2719205129
  C         7.1837997008        2.2712461813       25.4680459272
  C         6.2870666672        3.0404969272       27.4670533415
  C         7.8284669966        2.6464213719       24.3170032323
  C         8.3223523090        4.6478476190       23.2238269802
  H         6.4816126396        6.4350487826       24.4856205196
  H         5.8724563781        6.3771536706       26.1072281807
  C         4.8703659447        5.1512963919       24.6815427389
  S         6.7255693053        0.8219656878       26.1953119116
  C         6.1402881403        1.7201904469       27.6535099412
  H         6.1149377741        3.8548398753       28.1010315265
  C         8.2902027982        2.0781716776       23.1876609834
  H         8.3181121903        5.7645301244       23.3164597558
  C         8.6209513759        4.0468516011       22.0725413463
  H         5.1836005623        4.7237998276       23.7500635654
  H         4.6196715564        4.1825819796       25.2018276067
  C         3.6488045850        6.0987627599       24.5332941927
  C         5.6595308933        1.0079624206       28.9396720058
  C         8.6648320489        2.7043078424       21.9854906730
  H         8.2317217820        1.0142360697       23.0356827685
  C         9.0345264273        4.4506016195       20.8401803659
  H         2.9131364955        5.6366571686       23.8518612890
  H         3.8337372403        7.0184339792       24.1477396296
  C         2.7834490311        6.3348333796       25.8404896429
  C         5.8491186956       -0.4001168730       29.2228647280
  C         5.3791040036        1.8458383258       30.0411712388
  C         9.0276924925        2.0711608655       20.6558404393
  C         9.2284577760        3.3861560218       19.9698663923
  S         9.2830319032        5.9554280749       20.1360549123
  H         2.0379065109        7.1052497867       25.7591649126
  H         3.4949072569        6.7072570399       26.5915555356
  C         1.9563772839        5.1192942330       26.3300833000
  N         6.2530374974       -1.3304791870       28.2919614546
  C         5.6564892703       -0.8928980084       30.4920260231
  C         5.1763422056        1.3602148320       31.3170104769
  H         5.3357389202        2.9261050840       29.8389639021
  C         7.7431454021        1.2908539813       20.2047132604
  C        10.2967253382        1.1353396840       20.5353588994
  C         9.6610289237        3.7750189184       18.6919288617
  C         9.7295539001        5.1110840935       18.6103750802
  H         1.3367530551        4.7218913150       25.4904962246
  H         2.5674933427        4.2972459415       26.6505107312
  C         1.0993309663        5.5056166759       27.5237995517
  S         6.3993533393       -2.7826190554       29.0293775011
  N         5.8627687921       -2.2520435484       30.4905539420
  C         5.2098710036       -0.1209942266       31.5912157140
  H         5.0201271966        2.0435868113       32.1048806499
  H         7.4160710438        0.6852721301       21.1203009264
  H         8.1087680854        0.4935024562       19.5452610897
  C         6.6453753145        2.1772414475       19.5276817308
  H        10.4364572652        0.8143916601       19.5958373577
  H        10.0138493893        0.1630921327       20.9963536248
  C        11.5588167217        1.7702370037       21.0552836107
  H         9.8694965723        2.9463603016       18.0305798099
  C        10.0316668773        5.8840047860       17.3407763662
  H         0.2077695140        4.8746829316       27.6815340071
  H         0.8117548338        6.5414041992       27.4493179842
  C         1.9058988520        5.4020511519       28.8030801511
  C         5.1058468998       -0.7707099239       32.8955294670
  H         7.0532937474        2.7689840776       18.7073557534
  H         6.2091975556        2.8590464494       20.2074663327
  C         5.6547877591        1.2704592079       18.8458723853
  H        11.4313890499        2.0373872547       22.1286841220
  H        11.8671028293        2.6401095222       20.5255507421
  C        12.7174575710        0.7307408735       21.1113616403
  C        10.1938952071        7.2770251759       17.2214147664
  C        10.3660289071        5.0523179624       16.1441912733
  H         2.4154553659        4.4116876907       28.8282530216
  H         2.7037897161        6.1495989179       28.7733974835
  C         1.1008544823        5.5121019615       30.0764568624
  H         5.3567848573       -1.7942831659       32.8473592475
  C         4.7179948415       -0.2855559633       34.0949939350
  H         5.7182760272        0.3577945032       19.4382890558
  H         6.0068889973        0.9666714945       17.8848212776
  C         4.2384319911        1.8063276218       18.5882455885
  H        12.3492660628       -0.0196367978       21.8533471041
  H        12.7110283724        0.0579675812       20.2508979853
  C        14.0503370803        1.2949829507       21.4651285582
  N         9.9369016067        8.1960130526       18.2599518246
  C        10.4075691468        7.8751118441       15.9688652807
  C        10.5162035905        5.7015464414       14.9388928505
  H        10.1133613467        4.0085053916       16.1644703753
  H         0.4860405548        4.5768583318       30.2773069458
  H         1.8099875479        5.4897769958       30.9051868355
  H         0.4968827399        6.4008527470       30.1015856585
  S         4.4133523633        1.3530293549       34.5410888787
  C         4.6012359479       -1.2646203163       35.1260147918
  H         3.9811551954        2.4992009005       19.3309572076
  H         4.2187774203        2.2851616776       17.5605974793
  C         3.1607507579        0.7299899448       18.6095539525
  H        14.0591747466        2.1760528325       20.8126130362
  H        14.8550019748        0.6254238544       21.0441733584
  C        14.2835892601        1.7600338960       22.8853755582
  S        10.0220534763        9.6797762743       17.5776076321
  N        10.3142471915        9.2616796630       16.0455176471
  C        10.6302767073        7.1701421614       14.8147797533
  H        10.6134347076        5.1553869649       14.0175487931
  C         4.1914790913        0.6914822198       36.1718143003
  N         4.2957440279       -0.6760096957       36.3088442529
  O         4.9390260283       -2.4096390109       34.9761799255
  H         2.2720215431        1.2566236683       18.5015967690
  H         3.1371405032        0.2857841915       19.5956502864
  C         3.3718533957       -0.3318333796       17.4634582657
  H        13.4831364419        2.4228785280       23.2271292475
  H        14.2125325590        0.9284825904       23.5709869809
  C        15.6252911585        2.4763143727       23.0541303690
  C        10.9233313575        7.9084803481       13.6303793367
  S         3.4476294052        1.5607895604       37.4224359457
  C         4.1444121352       -1.4885334811       37.5226167055
  H         3.0454122412        0.0410650953       16.5160682838
  H         4.4397998552       -0.6738841808       17.4841041580
  C         2.4362801008       -1.6098787852       17.6606404444
  H        15.4559643649        3.2845970729       23.6958818515
  H        15.8756119454        2.8823738055       22.0529324608
  C        16.7810377988        1.5295288810       23.3880586256
  H        10.7787431153        8.9851595060       13.6699012711
  C        11.4918909910        7.6193138300       12.4054508463
  H         3.3649182437       -1.0069382208       38.1716538372
  H         3.9095830027       -2.5462887504       37.3581894228
  C         5.3888258989       -1.4401595537       38.3587670541
  H         1.3718644756       -1.3884567819       17.5884621465
  H         2.5726331475       -2.0339261246       18.6984414494
  C         2.8368892579       -2.8179520595       16.7859837059
  H        17.0206449216        1.6117487475       24.4860295659
  H        16.6374922930        0.4059471225       23.3166162350
  C        18.0649661349        1.9119434803       22.7016597141
  S        11.9241644549        6.0568236698       11.8782866924
  C        11.6719995133        8.6942828237       11.3620348352
  H         5.1953889305       -0.8719761226       39.3006580712
  H         5.6149889861       -2.4820697678       38.7019066917
  H         6.3014318851       -1.1660526822       37.9092854231
  H         2.3201472160       -2.5613318000       15.8602689818
  H         2.4437439986       -3.7885975878       17.0903053019
  H         3.9022639477       -2.9809347366       16.7516137774
  H        18.0973826644        1.5725380012       21.7070325582
  H        18.9216214521        1.6684270276       23.3642323314
  H        18.0258019799        2.9651133027       22.6149543989
  C        12.2350765647        6.7737419160       10.2758682521
  N        12.1519484840        8.1272085029       10.2698194954
  O        11.4146013852        9.9020848317       11.5405761683
  S        12.7357176604        5.9326707015        8.8218328652
  C        12.1070822136        8.8682856934        9.0050635075
  H        12.4647336229        9.9221939974        9.2162302306
  H        12.7669627631        8.4283793085        8.3030696446
  C        10.6893591415        8.8207721236        8.4695668311
  H        10.4240775210        7.9005549707        7.9816785248
  H         9.8957189125        9.0371674596        9.2227438658
  H        10.5227148570        9.6419586059        7.7765772380
  H         4.2660506511        0.7801853765       12.9924427062
  C         4.2592123757        1.8597327023       13.1962126586
  H         5.2396629290        2.3202315656       13.3680960055
  C         3.3733013459        2.4918817081       12.0649461682
  C         3.5932671055        1.9694720970       14.5357346026
  C         4.0888895557        2.7286452619       10.8006959055
  H         2.9084615119        3.4535492524       12.3329765429
  H         2.6069260425        1.7336354988       11.8553652839
  H         2.6674713292        1.4743059240       14.2957757920
  H         3.4609175497        2.9509172357       15.0282995656
  H         4.2492918291        1.5571113483       15.2791130134
  C         4.6620260982        1.4167264076       10.2249998933
  H         3.3454666388        3.1815716785       10.1671648054
  H         4.8506512422        3.4211335203       11.0348720477
  C         5.3393744643        1.6934874586        8.8465273884
  H         3.9059412461        0.6911006852        9.9970112367
  H         5.3006523191        1.0997951846       11.0507197161
  C         6.6482125154        2.4754507793        9.0007381794
  H         4.7360801306        2.2810881417        8.1541682535
  H         5.6169964030        0.7606152654        8.3253303849
  C         7.8511936130        1.6128760183        9.4467821057
  H         6.8417829485        2.8016004371        8.0089956733
  H         6.4234058729        3.3481622157        9.5624005562
  C         9.1359185268        2.4759300878        9.5058090351
  H         8.0635349773        0.7732406920        8.7900169191
  H         7.7365512398        1.1742085485       10.3873907744
  C         8.9015199043        3.7308151818       10.2976931250
  C         9.5572476203        3.1678084473        8.3035493340
  C        10.4248142645        1.7932694330       10.1791052280
  C         9.0238215921        4.8321426734        9.4773384940
  C         8.4422049031        4.0997885759       11.6083458619
  C         9.4447146845        4.4903724914        8.2121875217
  C        10.0930150205        2.5333690023        7.1189902920
  H        10.0787091231        1.3375913069       11.1074007799
  H        10.7237775672        0.9233000214        9.6187468766
  C        11.6749750738        2.6389706620       10.3720346497
  S         8.6612653334        6.3424904103       10.1977359768
  C         8.2168200740        5.4427939106       11.6497198819
  H         8.3904013159        3.3368739851       12.3675940339
  C         9.8146184782        5.1053035552        7.0621450058
  H        10.2927797944        1.4743366548        7.2079911998
  C        10.4071138295        3.2120149294        5.9448371225
  H        11.4420349748        3.5764308970       10.8300581194
  H        12.1044249856        2.9323101864        9.4215253956
  C        12.7898620649        1.9627391379       11.1130845010
  C         7.6962628590        6.1457310339       12.8223655979
  C        10.2609930217        4.5442809746        5.8863565276
  H         9.5532868137        6.1478873814        6.8671037000
  C        10.8598178240        2.8317418516        4.7043486305
  H        13.6154180178        2.7032613977       11.0583849424
  H        13.0991499662        1.0139037434       10.7923367374
  C        12.5897033274        1.9270465259       12.6508808238
  C         7.7019915416        7.5347734959       13.0663525247
  C         7.1128182695        5.3414358738       13.9381209342
  C        10.6145705845        5.3895654792        4.6779895129
  C        11.0589788458        3.9938522146        3.9734941266
  S        11.1485545959        1.4058267591        3.8394592410
  H        12.0831483397        2.8242062691       12.9165352778
  H        11.8816351926        1.1483699414       12.8183746804
  C        13.7776334963        1.8518590206       13.5182613212
  N         7.9963489759        8.4938704270       12.1160403979
  C         7.3629893842        8.0809908814       14.2636194794
  C         6.8721386738        5.8554939853       15.1624638788
  H         6.7589205340        4.3431581479       13.7071048047
  C        11.9718766922        6.2287933545        4.8356212005
  C         9.5761270040        6.1643578163        3.8807886539
  C        11.4171724639        3.6820044214        2.6422197902
  C        11.4483403104        2.3295985519        2.4341631740
  H        14.1583861194        2.8733516003       13.7011541187
  H        14.5180543357        1.2583603484       13.0787826624
  C        13.4422399537        1.2509180415       14.8212079112
  S         7.8803799513        9.9913495832       12.8046108786
  N         7.3690959875        9.4456493966       14.3016484322
  C         7.1024481276        7.3370744326       15.4304585733
  H         6.2479809726        5.2388401012       15.7589225654
  H        11.8879655670        6.9700887299        5.5721151750
  H        12.2611184771        6.7029959142        3.8888863944
  C        13.2037338026        5.4607448925        5.2184490307
  H         9.2472427288        7.0215941578        4.4351027216
  H        10.1267643052        6.5388745635        3.0290481405
  C         8.3042678746        5.3862572008        3.3983705595
  H        11.6246484901        4.4685884287        1.9785749740
  C        11.7189642993        1.6048340960        1.0766555415
  H        13.0134632730        0.2262793114       14.7198573414
  H        14.3784061364        1.1431789518       15.3225048337
  C        12.3005845280        2.0299212370       15.6007750081
  C         6.8464360237        7.9937859841       16.6290683660
  H        13.1776145249        4.6393682253        5.9102121534
  H        13.4206746647        4.9250657519        4.3627496466
  C        14.3614222193        6.4046975554        5.4402967713
  H         7.6097764387        5.0174255596        4.1600330135
  H         8.6448819777        4.4826361729        2.8666245705
  C         7.4808797425        6.1964485796        2.4000871413
  C        11.7998781609        0.1740214352        0.9310711919
  C        11.9647917053        2.4298642682       -0.1393453640
  H        11.3429049482        1.4873995735       15.6816188748
  H        12.0744896642        3.0375392261       15.2142969159
  C        12.7008517580        2.4643400609       17.0600008655
  H         6.8241140203        9.0850222280       16.5727091978
  C         6.4702855123        7.5938007275       17.9014023903
  H        14.0814534641        7.0903720336        6.2021456636
  H        14.4876558095        7.0435792499        4.5449788619
  C        15.5871924586        5.5656019360        5.8253038589
  H         8.0233332077        7.1303203803        2.2991106336
  H         7.5824123136        5.6434504163        1.4660226038
  C         6.0729675225        6.3751120887        2.9508530946
  N        11.6190027925       -0.7718491036        1.8913701613
  C        12.0096588335       -0.4321317080       -0.3215366349
  C        12.2691982209        1.7729699466       -1.3634295021
  H        12.0473315169        3.5230593610       -0.0440979766
  H        12.3235172254        3.3843259030       17.3712075094
  H        13.8475893321        2.3827219969       17.2242769057
  H        12.1600135646        1.7787356747       17.7419945450
  S         6.2891472364        5.9834503755       18.2731098027
  C         6.5539875104        8.5191228865       19.0177357425
  H        15.1758441040        4.8913239438        6.6187446843
  H        15.9353739583        4.8564922489        5.0241164085
  C        16.8167708400        6.3334638771        6.4286943230
  H         6.0803907593        6.6366443205        4.0243523991
  H         5.5452267271        5.4905439542        2.8014605074
  C         5.3317302383        7.4156042641        2.1624270251
  S        11.4671974898       -2.2870668015        1.1932683207
  N        11.9903240585       -1.8419515332       -0.2930388310
  C        12.3003964951        0.2872814932       -1.4639423420
  H        12.4359164416        2.3944287115       -2.2016649246
  C         6.0369135681        6.4992024076       19.9283202297
  N         6.2146862248        7.8170066328       20.1400449646
  O         6.7384980452        9.7735375001       18.9535792543
  H        17.0000865257        7.1131595891        5.6332775452
  H        16.5348030670        6.8735736015        7.3941919509
  C        17.9057296260        5.2946058048        6.6625486625
  H         6.0840343680        8.2181135931        1.9921907538
  H         5.0603147456        6.9263925158        1.2072065523
  C         4.2120023569        8.0557265328        2.9622639823
  C        12.5923452991       -0.3640249736       -2.6829609853
  S         5.5599128218        5.4988672437       21.1798041798
  C         6.3021651810        8.4326543449       21.4248778946
  H        17.3701007998        4.5276301206        7.2726650977
  H        18.1936247043        4.8773779243        5.7121979479
  C        19.0607472515        5.8404450234        7.4676365904
  H         4.6552539851        8.5129238342        3.8288644501
  H         3.5082027919        7.3738255834        3.3147505317
  C         3.5885787583        9.2774276317        2.1820922352
  H        12.1547342089       -1.2798836116       -2.8155273037
  C        13.1339914692       -0.0421830650       -3.8916110071
  H         5.6911783558        7.8755427740       22.2163580524
  H         5.7916865651        9.3713718255       21.3269692169
  C         7.6971987277        8.6512598288       21.8926954593
  H        19.2683657815        5.0166973224        8.1604132636
  H        18.6953012023        6.6151895959        8.1054610028
  C        20.3010724417        6.2263221741        6.6743940961
  H         2.7759039951        9.6510180275        2.7470235161
  H         4.3176461157       10.0126547004        2.1114161339
  C         3.2589457387        9.0113440019        0.7162633941
  S        13.7828888031        1.5293337901       -4.4194347465
  C        13.1568585149       -1.0388997203       -4.9554555906
  H         8.2176217137        7.7050517121       22.0848730704
  H         7.7659227840        9.2573999937       22.7680517447
  H         8.2968163103        9.1752945581       21.1004863787
  H        20.1366518397        6.8470220355        5.8818794017
  H        21.1830256687        6.6831242524        7.2815050488
  H        20.5982168891        5.3187421106        6.1742776419
  H         2.9085317864        9.8813061498        0.2286600562
  H         4.0410441671        8.4523558087        0.1291866218
  H         2.4663373599        8.2866789771        0.7196684139
  C        13.9937683485        0.8061717698       -5.9440494259
  N        13.7848021672       -0.5254962850       -6.0432944451
  O        12.7585094000       -2.2342640472       -4.8746172990
  S        14.9040588247        1.5697905622       -7.2583087270
  C        14.1024043029       -1.2754368877       -7.2675768442
  H        14.0320506417       -2.3060458211       -6.9395732565
  H        15.1352182797       -1.1323236636       -7.5261692553
  C        13.0826059243       -1.0751809439       -8.3631040219
  H        12.6833271258       -2.0296496021       -8.7026426813
  H        13.3606511290       -0.3523266163       -9.1009109464
  H        12.2155755344       -0.5570768165       -8.0103747743
