352
 i =    42300, time =    21150.000, E =       100.5020315149
  H        10.8570708513        4.4307448293       31.9356874030
  C        10.6416164671        5.5115019273       32.1072719473
  H         9.5945138224        5.5635965517       32.0074263998
  C        11.2992335942        6.4318249536       31.0743798269
  C        10.9604526854        5.9901337443       33.5958879989
  C        11.6723919943        5.8576400405       29.6822968084
  H        10.7277716664        7.3802328992       30.9407395356
  H        12.2863451463        6.6552897523       31.5859277940
  H        11.6945840927        6.7787938221       33.8596687758
  H         9.9709347103        6.3411539009       33.9625095801
  H        11.3082764567        5.1952453113       34.2606440763
  C        10.3434173386        5.6334435285       28.9654845025
  H        12.2670896747        4.9994764554       29.7314457155
  H        12.3233490062        6.6500750837       29.2691416898
  C        10.4816726914        5.7001862210       27.4397745137
  H         9.9763247901        4.5628041100       29.2310279959
  H         9.6340408575        6.3185617261       29.3195926144
  C         9.5068404403        4.9027796011       26.5138884136
  H        11.4227219558        5.2354888639       27.3536812214
  H        10.5547268423        6.7231901805       27.0830378387
  C         8.3499650381        5.7947412366       26.1817670747
  H        10.0046640621        4.5287616804       25.5804581434
  H         9.1118137037        3.9972915553       26.8848694112
  C         7.1344471743        5.1327552948       25.5095709595
  H         8.0659695405        6.3136925387       27.0936391528
  H         8.6831325756        6.6754282406       25.5457033693
  C         6.7571003182        3.7772984110       26.1368141116
  C         7.4785519801        4.4139241206       24.2470905594
  C         5.8352662685        5.9415770606       25.3714017797
  C         6.9063272547        2.6699235727       25.3080174576
  C         6.2251667526        3.4464908664       27.3793755548
  C         7.3976548063        3.1041430145       24.0687794077
  C         8.0470513893        5.0222341027       23.1102394724
  H         6.1054181049        6.8950769306       24.8785901547
  H         5.4340785003        6.4308625006       26.3549564630
  C         4.6747203039        5.3159897650       24.5458526111
  S         6.5981261519        1.1577557215       26.0962330741
  C         6.2062873503        2.0598661334       27.5167131644
  H         6.0740878662        4.1955056986       28.1420413774
  C         7.8614063839        2.4715272177       22.9808127419
  H         8.1156988737        6.0983057644       23.1810726624
  C         8.3863746000        4.3769289642       21.9843864181
  H         5.0119088402        5.2753607683       23.4909174605
  H         4.5003919781        4.2853593446       24.9096419954
  C         3.3070980891        6.0947836909       24.6288352683
  C         5.9565256135        1.3670808398       28.7585984816
  C         8.3114296306        3.0586643374       21.8499582338
  H         7.7641055979        1.4029444806       23.0632641163
  C         8.8768374550        4.8282168655       20.7129163312
  H         2.5784339910        5.5266651191       23.9800101093
  H         3.5157937752        7.0720442703       24.1631927477
  C         2.6755510335        6.3091620376       26.0343970631
  C         5.9455509856       -0.0241551228       28.9474339989
  C         5.6279160191        2.0973925898       29.9945733370
  C         8.7547118568        2.4680740022       20.5297482357
  C         9.0040671569        3.8058981694       19.8760772872
  S         9.2295903253        6.3017373443       19.9134698203
  H         1.8356879551        6.9951530428       26.0341274660
  H         3.4286773721        6.7789689375       26.6473215004
  C         2.1240802241        4.9110325028       26.5249565911
  N         6.3743402957       -0.9615225483       28.0013727734
  C         5.6342288316       -0.6267133270       30.1687161523
  C         5.2644696978        1.5761568765       31.2199673386
  H         5.6100150779        3.1872512331       30.0504427104
  C         7.5549236404        1.7696246047       19.9605167289
  C         9.9652336278        1.6005864056       20.6745589422
  C         9.3572561014        4.1486091559       18.5705312017
  C         9.6383489653        5.4513508133       18.4584710570
  H         1.4136846636        4.5683958179       25.7841196562
  H         2.9410154502        4.2432059031       26.6251435066
  C         1.3854841661        5.0317514855       27.8350492086
  S         6.2039082374       -2.3951224245       28.6404747040
  N         5.8721009062       -1.9559285352       30.1761481417
  C         5.3562420116        0.1047129450       31.3553307052
  H         5.1335915581        2.3643572114       31.9358179401
  H         7.3310044928        0.9681817830       20.5914084034
  H         7.8897896961        1.3042733016       19.0765647034
  C         6.2905584552        2.5058138545       19.6924426560
  H        10.1564883424        1.0526322425       19.7461252653
  H         9.6836224998        0.8402688437       21.3947496554
  C        11.1413970716        2.2890849642       21.2629263178
  H         9.4991925832        3.2737114802       17.8403058862
  C         9.9922533801        6.1062797488       17.1531039774
  H         0.9611861584        4.0461671615       28.0248901512
  H         0.6707754676        5.7508639965       27.7562906396
  C         2.3136924411        5.2210231266       29.0197264153
  C         5.0625580286       -0.5236514592       32.5702779754
  H         6.3912038390        3.5131678045       19.3129195711
  H         5.7373686903        2.6208947769       20.6053926180
  C         5.4188583905        1.9038767002       18.6364562721
  H        10.9453956199        2.8747312933       22.1513668649
  H        11.4641833283        3.0751892996       20.5735916122
  C        12.3228630698        1.3748761147       21.6530573161
  C         9.9508180515        7.5025640546       16.8968510093
  C        10.1419634037        5.2547054586       15.9507862974
  H         3.1385761230        4.4905640549       29.0424196018
  H         2.8763158364        6.1082436597       28.8342241975
  C         1.6900665202        5.2979737628       30.4168425448
  H         4.8283171162       -1.5836032317       32.4619610424
  C         4.9684377414       -0.1053609550       33.8600902897
  H         5.6954039512        0.8809707985       18.5309428805
  H         5.7532702064        2.4876877017       17.8577269094
  C         3.8516887899        2.2033665023       18.6514462894
  H        12.1025847004        0.6895214510       22.4445760777
  H        12.4469851134        0.7550137739       20.7379769599
  C        13.6924110287        2.1849135403       21.8785042460
  N         9.6792351833        8.4496424809       17.8686634722
  C        10.1875379996        8.1093744110       15.6618208395
  C        10.4677496863        5.9197961752       14.7339071501
  H        10.1643467833        4.1777520747       16.0087128364
  H         2.4077448583        5.3432941117       31.1996527069
  H         0.9832728148        6.2168027407       30.5683457275
  H         1.1170954331        4.3654652803       30.5399419783
  S         4.7973129457        1.4819408907       34.3540578423
  C         4.8040040071       -1.1584698323       34.9299023980
  H         3.7097189233        2.9697880875       19.4470458636
  H         3.7145852851        2.7206874881       17.7675087947
  C         2.8942863068        0.9723330820       18.7830050170
  H        13.4567357601        3.2367648670       22.2544093124
  H        14.1502593003        2.4559275264       20.9205820390
  C        14.6957167214        1.4379249495       22.7711106437
  S         9.7316402050        9.9523317770       17.2790174851
  N        10.2530346478        9.4970288215       15.8005216329
  C        10.5300793857        7.4072151211       14.5285522927
  H        10.5825565872        5.2204038294       13.8977331727
  C         4.5911414630        0.7882683142       35.9514315542
  N         4.5186860580       -0.5181982553       36.0697124440
  O         4.8254602091       -2.3559221536       34.7273066724
  H         1.8810640227        1.2014012809       18.7449904983
  H         3.1527682006        0.3917973635       19.6801162609
  C         3.0054323714       -0.0224510732       17.6377751354
  H        14.2647588331        1.1232232657       23.7042701228
  H        15.0682343741        0.6078552016       22.2246464133
  C        15.8872224044        2.3074377107       23.0996573215
  C        10.8229268586        8.1455460863       13.3234874840
  S         4.1020411612        1.8986805865       37.2246588077
  C         4.4579199510       -1.1975983664       37.3602911766
  H         2.9517922149        0.4534487515       16.7358449673
  H         3.9216744412       -0.5960464074       17.6839811295
  C         1.9011122573       -1.0809209945       17.7870767873
  H        15.5967996582        3.0091769819       23.7980741815
  H        16.1005484644        2.8903013666       22.2334628275
  C        17.1199598367        1.5002129558       23.5764284310
  H        10.7801988244        9.1937193557       13.3630008230
  C        11.2457837671        7.8231951728       12.0525852370
  H         3.6655170878       -0.8256613830       37.9900291733
  H         4.1223060703       -2.2071995347       37.2733330139
  C         5.7692317934       -1.2425973507       38.1249770473
  H         0.8908366815       -0.6573442744       17.7106402243
  H         1.8435253191       -1.4946256439       18.7704331946
  C         2.0991751000       -2.3024189810       16.8354830614
  H        17.4979826091        1.8886106670       24.4886299734
  H        16.8005706052        0.4911583769       23.7776130153
  C        18.3511128488        1.5250950866       22.6985830127
  S        11.8716777445        6.2930103364       11.5793532234
  C        11.3014284551        8.8975059612       11.0570939748
  H         6.4956633922       -0.5208046788       37.7500068567
  H         5.4609562440       -0.9528395556       39.1564603523
  H         6.1414804844       -2.2718586994       38.2438692925
  H         1.4092402230       -3.0945120080       16.8406128776
  H         3.1069647410       -2.7859670528       17.0204033800
  H         2.2138021700       -1.9666425161       15.8232484115
  H        19.1309557271        0.9609310285       23.1226638752
  H        18.6420131899        2.5430474575       22.5389661171
  H        18.1350062092        0.9693785599       21.7260483807
  C        12.1509057723        7.0688084368        9.9867705070
  N        11.9322269230        8.4352793000        9.9655826821
  O        11.0537187502       10.1159637287       11.3496855038
  S        12.9249406038        6.2780040535        8.6325737438
  C        11.9793897310        9.2214099736        8.7261246065
  H        12.1178331443       10.2798897023        8.9274262930
  H        12.7482328655        8.9159415817        7.9997060497
  C        10.6674269261        9.1053684349        7.9712025218
  H         9.8567077000        9.7749647255        8.3697833612
  H        10.7452787526        9.2719567832        6.9262703457
  H        10.3422671460        8.1272569001        8.0044144779
  H         4.6026996832        2.1279130113       12.1280920991
  C         3.7705729580        2.8044389503       12.2271210877
  H         4.2553803127        3.7611357222       12.4708045716
  C         2.9025123469        2.6874670010       10.9910073765
  C         2.9205738518        2.2433056604       13.2597939414
  C         3.6231903421        2.7847557990        9.6356018401
  H         2.1980305479        3.5175703479       11.0030907060
  H         2.2520689070        1.8214465850       11.0380628876
  H         1.9418486981        2.7581917691       13.5226529651
  H         3.3910508604        2.2625854090       14.2139128095
  H         2.6868117252        1.1836254851       13.0998529493
  C         4.3452930278        1.5560039703        9.2122269866
  H         2.8021067717        2.8961235542        8.8901643876
  H         4.0977538165        3.7029953084        9.4372143323
  C         5.3787255274        1.6152043676        8.1515326113
  H         3.7184480144        0.7696948277        8.8399509751
  H         4.8731264806        1.2430792266       10.1561392548
  C         6.5154437971        2.6021175368        8.4958018141
  H         4.9703241288        1.8599543723        7.1431924932
  H         5.7079378454        0.5632325013        8.0179811472
  C         7.8296841766        1.8003248053        8.6399898661
  H         6.5303853908        3.4082579606        7.7012507802
  H         6.2940630864        3.1035909424        9.4782433361
  C         9.0528182053        2.6971879474        8.9128454941
  H         8.1071428211        1.2093732486        7.7329638320
  H         7.8447745867        1.0883949578        9.3938290382
  C         8.7985558630        3.9940999952        9.5732034168
  C         9.4633568027        3.4560331894        7.6435590618
  C        10.2518773276        1.9518404795        9.5431401017
  C         8.9872870776        5.1415654740        8.7627848988
  C         8.3768947396        4.3337595165       10.8514392390
  C         9.4838955890        4.8127785270        7.5382278333
  C         9.8702237708        2.8715878200        6.4246196305
  H         9.9021950108        1.6153095220       10.5362372649
  H        10.3560776827        1.0214573571        9.0034097857
  C        11.5795164206        2.7941649397        9.8277346633
  S         8.6074525911        6.6080610683        9.5878279988
  C         8.2512169687        5.6904749890       10.9624774383
  H         8.1266720610        3.5918208144       11.5152765489
  C         9.8564799700        5.4587426031        6.3470716179
  H         9.7887231827        1.7899460506        6.4039494024
  C        10.1734468139        3.5378249412        5.1956360501
  H        11.3603447250        3.8269474761       10.1699170526
  H        12.1653057863        3.0610190636        8.9804512487
  C        12.3986643392        2.2621488754       10.9764452855
  C         7.6904088512        6.4089772443       12.2093906493
  C        10.2675296849        4.8697038499        5.0884574763
  H         9.9559261108        6.4880603079        6.3688356288
  C        10.6198160717        3.1340619179        3.9225725888
  H        13.4642078845        2.5125705300       10.7726987817
  H        12.4344091895        1.2140111666       10.9568246618
  C        12.0260352607        2.8139480508       12.3713525505
  C         7.6956483112        7.7978745326       12.5828617096
  C         7.3440487308        5.5271639485       13.4177934483
  C        10.7774187000        5.5176618716        3.9368345374
  C        10.9364556307        4.2010126676        3.1461017768
  S        10.8233159417        1.6028587301        3.2395425900
  H        12.3985323916        3.8169229766       12.5870333154
  H        10.9722255243        2.9365545680       12.4226159126
  C        12.4743666363        1.8406183062       13.4799467665
  N         7.9488243204        8.8764799418       11.7369659691
  C         7.4050383977        8.2672224327       13.8599873078
  C         7.0701800600        6.0049057469       14.6908198013
  H         7.1815046204        4.4751902447       13.2832146607
  C        12.1114115873        6.1522504716        4.3814466965
  C         9.7357380820        6.5391111314        3.3263788976
  C        11.2866024343        3.8201430596        1.8510645501
  C        11.3129842758        2.4157854902        1.7397825284
  H        13.5452270824        1.5912033634       13.3244768616
  H        11.9870365246        0.8220811175       13.3120037278
  C        12.0006816475        2.2622542815       14.8200125239
  S         7.9558612076       10.2784702242       12.6113209670
  N         7.4244751097        9.6279871482       13.9494623192
  C         7.1112457121        7.4252848209       14.9448431832
  H         6.8264403948        5.2713345042       15.4741813445
  H        11.9204957257        6.8650147399        5.2245746628
  H        12.6041058775        6.8334007656        3.6320437410
  C        13.1695298571        5.1079378919        4.8931374863
  H         9.4112693000        7.1598936884        4.0934404395
  H        10.2004669657        7.1899883844        2.5784913658
  C         8.4663174047        5.9152299304        2.6859208072
  H        11.6933904231        4.6205367546        1.2556402782
  C        11.5897999497        1.7053402737        0.5157618890
  H        12.0960846724        3.3480158897       14.9465461712
  H        10.9771725086        1.9404496219       15.1056959915
  C        12.8434014402        1.7135074361       15.9001643280
  C         6.8400622312        8.1081348076       16.1941563393
  H        12.8038501033        4.5116537200        5.7300625366
  H        13.3676660773        4.4362355871        4.1055670382
  C        14.6664591905        5.6493601753        5.0876931336
  H         7.8857915678        5.4941813018        3.5290570848
  H         8.6443799557        5.0630207678        1.9903265927
  C         7.5325552797        6.8663841537        2.0384064306
  C        11.7255401400        0.3171218586        0.4381298544
  C        11.8288479383        2.4662252735       -0.7424451934
  H        13.9192573674        1.9025302523       15.6544463489
  H        12.7133579313        0.6712386276       15.9250324733
  C        12.5145200928        2.4468981885       17.1610594459
  H         6.8657348102        9.1208813661       16.2696767317
  C         6.5824103495        7.6770707776       17.4629749303
  H        14.4899027935        6.5256833956        5.7445647734
  H        15.0974284377        5.8936806025        4.1853235544
  C        15.6508157899        4.6430200100        5.7050448095
  H         7.0655643172        7.5313455620        2.8064637548
  H         8.0530168674        7.5645729432        1.3882000410
  C         6.4760494915        6.1554732917        1.2454834990
  N        11.4815004122       -0.5819284354        1.4923318955
  C        12.1292545511       -0.3139496887       -0.6915735992
  C        12.2646152418        1.7851021406       -1.8729196098
  H        11.7294551745        3.5470732998       -0.7145170543
  H        11.3811208122        2.4839678523       17.3740342441
  H        12.9676122214        3.4513185984       17.2084144707
  H        12.9844696660        1.8654926629       18.0142374843
  S         6.1798880183        5.9803701746       17.9341293313
  C         6.3992956577        8.6891282982       18.5578122223
  H        15.0596606995        3.7801767004        6.1060277261
  H        16.3224573873        4.1976439336        4.9056727519
  C        16.3694883890        5.2589837971        6.9004921174
  H         5.8636640080        5.4809357903        1.8732924169
  H         7.1007223686        5.6138473214        0.5338625287
  C         5.4688630291        7.0672748782        0.4772778482
  S        11.5993945537       -2.0765071412        0.9675997929
  N        12.0628445069       -1.7061340192       -0.5159457368
  C        12.3899694439        0.2790559959       -1.9184820468
  H        12.5794772133        2.3969460873       -2.7149495192
  C         5.7942082566        6.7028965386       19.5261144311
  N         5.8550226502        8.0711547804       19.5931566011
  O         6.6823781444        9.8474526092       18.5223321042
  H        16.5349943389        6.2772478106        6.5581740265
  H        15.7367151833        5.2801249246        7.7836056032
  C        17.7764941547        4.5842968731        7.3045260395
  H         6.0126773792        7.9032656536        0.0154956314
  H         4.9025272897        6.5977737846       -0.3343570253
  C         4.4272169653        7.5859184042        1.4671607120
  C        12.7526165210       -0.5311312632       -3.0416819065
  S         5.3906543639        5.6384127124       20.8848521350
  C         5.7384639965        8.7480068458       20.8390683889
  H        17.6623644553        4.2182111689        8.3215606668
  H        17.8609578909        3.7293295630        6.6951899047
  C        19.0262595511        5.4308409987        7.0384521316
  H         4.6097225446        7.0716307517        2.3870715779
  H         3.5375735163        7.1331577314        1.0875211458
  C         4.3143357851        9.1372826793        1.6186571513
  H        12.6111484892       -1.5367353017       -2.9575893845
  C        13.3473215329       -0.1918808828       -4.1765070531
  H         4.9378327848        8.2872568581       21.4155199854
  H         5.5514944800        9.8036237104       20.7679063777
  C         7.0025210196        8.5379907369       21.6969244766
  H        19.9151431613        4.8718591915        7.3187870816
  H        19.0500414872        6.2440784253        7.7263426898
  C        19.0818866644        5.9580922411        5.6908880324
  H         3.4751857034        9.4979516475        2.3458144798
  H         5.2803865172        9.4835154814        2.0117314040
  C         4.1205156847        9.8841187140        0.2654016017
  S        13.9900078256        1.3535172637       -4.6231652619
  C        13.3713536705       -1.2297835870       -5.1950873915
  H         7.7078838744        7.8938369482       21.1556610553
  H         6.7483256089        8.0691096167       22.6537243649
  H         7.5110260613        9.4764077024       21.8170208894
  H        18.8381339192        5.1582384833        4.9668171711
  H        18.4794753197        6.7803703544        5.4875838436
  H        20.1307389346        6.2312444627        5.4638087355
  H         3.3243384775       10.6141419450        0.3960144319
  H         5.0695226230       10.2852083076       -0.1120413774
  H         3.6813134335        9.1893550041       -0.4847337146
  C        14.3920108569        0.6220704882       -6.1608560121
  N        13.9050824850       -0.6646965290       -6.2794952286
  O        12.8618833393       -2.3446953315       -5.1097729055
  S        14.9721510357        1.3812054312       -7.6039087769
  C        13.9129488540       -1.4901573189       -7.4639529314
  H        13.7979033284       -2.5631565043       -7.2168430167
  H        14.8296109830       -1.5274465371       -8.0094318639
  C        12.8423399675       -1.1526655168       -8.4713575457
  H        12.0112545130       -0.7448970310       -7.8869600790
  H        12.4717349683       -2.0091739028       -9.1026621062
  H        13.2199255576       -0.4301848781       -9.1531412257
