352
 i =    24700, time =    12350.000, E =        96.7135561342
  H        10.5471227157        4.6968245149       31.1526502606
  C        10.4531377354        5.6248323509       31.7633513821
  H         9.4148209429        5.7283492998       31.7620659940
  C        11.1119098790        6.7963934055       30.9736336701
  C        10.9620623269        5.5601787504       33.2055635117
  C        11.6833795006        6.2423469429       29.6184517426
  H        10.3611837955        7.5465183146       30.7814017396
  H        11.9186326481        7.2873351181       31.5999670641
  H        10.6645514194        4.6426981180       33.5476270103
  H        12.0518341689        5.4860376385       33.3014761513
  H        10.4505407810        6.1762293434       33.9333796477
  C        10.6054866231        5.8222725185       28.6302552611
  H        12.3690461502        5.4394227441       29.8979759644
  H        12.3835993179        6.9523619418       29.1614522500
  C        10.9563643820        5.7998342121       27.1827091234
  H        10.1550698171        4.8607270093       28.8887352998
  H         9.7636883122        6.5361946957       28.9116326671
  C        10.0288764524        5.1126050002       26.1939764838
  H        11.9269322199        5.3680311557       27.0822847194
  H        11.0934244284        6.8574476276       26.8599281940
  C         8.7825899209        5.9220608572       25.8925958948
  H        10.5593069997        4.6403982459       25.3823351275
  H         9.7835888715        4.1884356499       26.7490688444
  C         7.6063406813        5.1854321755       25.2672825044
  H         8.3018323551        6.4372735949       26.7783356324
  H         8.9889392477        6.6500995877       25.1339517037
  C         7.3186825303        3.8450084518       26.0314660510
  C         8.0546279803        4.4911366099       24.0594458020
  C         6.2470624097        5.9733824089       25.1434901594
  C         7.6070541312        2.7816159055       25.2734036845
  C         6.8081732122        3.4217118475       27.3069526585
  C         8.0783538830        3.1156193883       24.0266157632
  C         8.3707401341        5.1067322106       22.8428290415
  H         6.4589450753        6.8480367421       24.5242724435
  H         6.1106918086        6.3154539263       26.1834533169
  C         5.0721434642        5.1983089376       24.6372890552
  S         7.2415692282        1.2835534617       25.9945543492
  C         6.6637934888        2.0931692303       27.4366197270
  H         6.6045831391        4.2073764112       28.0425732269
  C         8.2612684539        2.4102959804       22.8103348106
  H         8.4643116169        6.1695130700       22.8244135037
  C         8.6950993562        4.4282959404       21.7015900669
  H         5.4953497220        4.8923049785       23.6776367106
  H         4.8845657476        4.3927253052       25.3080103459
  C         3.8178784519        6.0401898607       24.5061215908
  C         6.1575654050        1.3246406790       28.6752604805
  C         8.5825386712        3.0885961142       21.5956542355
  H         8.0401383869        1.3643260810       22.6744931930
  C         9.0573321008        4.7711044724       20.4248652602
  H         3.1054344853        5.5704003849       23.9318348197
  H         4.0041255417        6.8992649197       23.8497771727
  C         3.1650685347        6.3514584242       25.8441140399
  C         6.1536613795       -0.0388827275       28.7910280286
  C         5.7555610703        2.1371926350       29.8115698475
  C         8.8489888025        2.3518086290       20.3476738798
  C         9.1415570510        3.6809055063       19.6381817251
  S         9.4137709382        6.2633286376       19.8104042813
  H         2.8014040366        7.3733608111       25.8392944193
  H         3.9080084502        6.3143557585       26.6653754368
  C         2.0858649938        5.3485450595       26.2010836656
  N         6.4375907286       -0.9380547935       27.8426404610
  C         5.9254415366       -0.6479452716       30.0099395905
  C         5.5206996088        1.5353574246       30.9633117750
  H         5.5007238559        3.1920458806       29.7123725903
  C         7.6589838677        1.5086373601       19.7937083388
  C        10.1467237657        1.4983434136       20.5622504089
  C         9.4666493260        4.0331418843       18.3236572198
  C         9.6608929261        5.4116912540       18.2743946368
  H         1.1835796246        5.3325291275       25.5434512617
  H         2.4973408003        4.3166881915       26.4112547959
  C         1.3934623557        5.8039112199       27.4609560140
  S         6.5418015187       -2.4421598928       28.4983196711
  N         6.1331746621       -2.0043786174       30.0056370020
  C         5.6643228006        0.1195237283       31.1285807385
  H         5.1264057469        2.1054082279       31.7441654738
  H         7.4860792263        0.6567224014       20.4455519519
  H         7.9880850008        1.0160786915       18.9105008822
  C         6.3946435692        2.2833402002       19.6203716706
  H        10.3305267813        0.8798159068       19.6683467144
  H         9.9656529299        0.6678620919       21.3101278168
  C        11.3782335288        2.3378155971       21.0794769956
  H         9.5822506908        3.3263404314       17.5008269622
  C        10.0516377748        6.1428700056       17.0034139385
  H         0.3064739371        5.7285281196       27.2882502293
  H         1.7010596523        6.8459272772       27.6308477673
  C         1.8633098440        4.9445580021       28.7072393184
  C         5.4272797667       -0.6082186026       32.3807472599
  H         6.5123443550        3.1761724610       19.0349412827
  H         5.9565309498        2.5689450884       20.5812114812
  C         5.3862196283        1.3396875722       18.9194829740
  H        11.1672416570        3.0859211599       21.8037039179
  H        11.6529634629        3.0327189906       20.2859992991
  C        12.5507498751        1.5219147242       21.6057161904
  C        10.0935193967        7.5545108746       16.8302376499
  C        10.2236183179        5.4295500871       15.7535350692
  H         1.4981548832        3.9249895971       28.6445680746
  H         2.9345536860        4.7838832180       28.6510207775
  C         1.7834758997        5.5361295639       30.1217756047
  H         5.7694221096       -1.6160745653       32.3872178897
  C         5.0752768623       -0.1672062536       33.6605641081
  H         5.1138791317        0.5278636494       19.5638480935
  H         5.7455587771        0.7828750834       17.9899395612
  C         4.0908201991        2.1317769690       18.5695545328
  H        12.0869416741        0.8985939514       22.3996162834
  H        12.9415650242        0.7804305177       20.9248412523
  C        13.6348844353        2.4888377395       21.9807790291
  N         9.8567647837        8.4561549416       17.8923955948
  C        10.2553800125        8.1927023854       15.5850473263
  C        10.5062495093        5.9858649785       14.4958108137
  H        10.4271472282        4.3365315510       15.8043466385
  H         0.7782631665        5.8364448545       30.4268725331
  H         2.0246506502        4.7591334405       30.9211794841
  H         2.5651506252        6.2691205337       30.3299074412
  S         4.7655610523        1.4325857491       34.1171221648
  C         5.0781482792       -1.1400138297       34.8281889558
  H         4.0312133230        3.0042168853       19.2013659611
  H         4.0978102352        2.4141327455       17.4876012680
  C         2.8581082220        1.2772745611       18.6328981305
  H        13.3000199989        3.1219505453       22.7967196208
  H        13.7687404837        3.2709865544       21.3211117621
  C        14.8364328296        1.7911232172       22.5427258048
  S         9.8705365059        9.9757792042       17.2245012180
  N        10.2796059289        9.6116500307       15.6910383838
  C        10.6088515558        7.4737635837       14.4155728016
  H        10.7325390633        5.3500224425       13.6685538088
  C         4.4990125686        0.8104792666       35.8321698552
  N         4.5451351022       -0.5166843118       35.9092397146
  O         5.4629178171       -2.3049506195       34.7548944714
  H         1.9610945951        1.8988020001       18.4381774922
  H         2.8221607180        1.0258590741       19.6922356665
  C         2.8566516965        0.0104270542       17.7179064723
  H        14.5523755076        1.1629094303       23.3924156343
  H        15.2171310647        1.0934749200       21.8433088165
  C        15.9583495068        2.7273976482       23.0408411867
  C        10.9829264702        8.2627995387       13.2951989521
  S         3.9282738781        1.7373236657       37.2036856951
  C         4.5313056933       -1.2032736287       37.1909944536
  H         2.1588766977        0.1067119322       16.9742472189
  H         3.7660829004       -0.0410901303       17.1155311684
  C         2.6967829886       -1.2672036120       18.4527972747
  H        15.6053058059        3.2444652559       23.9316918227
  H        16.2411775426        3.6092706176       22.4435788684
  C        17.2492013499        1.9864500304       23.4043401537
  H        10.6273318505        9.3061517284       13.3914135358
  C        11.6138359387        7.9141020227       12.1179799381
  H         3.7012649214       -0.9152050220       37.7868840880
  H         4.2972967377       -2.2626601347       37.0791595553
  C         5.8240592359       -1.0094788637       37.8727037711
  H         1.8883119969       -1.1902239534       19.1376407625
  H         3.5679501381       -1.5069959466       19.0888710837
  C         2.1873318136       -2.3652940400       17.5236754648
  H        17.5617812075        2.3510650102       24.3662064725
  H        16.9551952533        0.9823492019       23.4122690218
  C        18.2713144021        2.0666287610       22.3642001264
  S        12.1393570627        6.3971143912       11.6554299577
  C        11.8040979013        8.9144769098       11.0567977906
  H         5.9635696750       -1.8411991247       38.5246594326
  H         6.6049253972       -0.8895248624       37.1710482965
  H         5.9212652416       -0.1693765106       38.5519319991
  H         1.6784975914       -3.2462139798       17.9552876802
  H         3.0117472375       -2.6730398952       16.9624272348
  H         1.5290171379       -2.0534630455       16.7026296797
  H        17.9991554328        1.6571894942       21.3799340795
  H        19.0718940327        1.3464505998       22.5258298838
  H        18.6822125323        3.0429494864       22.2326132996
  C        12.8355966793        7.0645469323       10.1883671471
  N        12.4619048480        8.3515878036       10.0126910057
  O        11.4367225622       10.0729665410       11.1314472445
  S        13.4614265828        6.0865373659        8.8478646005
  C        12.5468655862        9.0872387849        8.8159038007
  H        12.8435910108       10.1366659810        9.0724016672
  H        13.3977828883        8.8109182267        8.2138972284
  C        11.1660622991        9.0132921198        8.0513124433
  H        10.2800221402        9.3299243058        8.6666767979
  H        11.2259630110        9.5647720080        7.1541197904
  H        11.0455079934        8.0160977169        7.6567711586
  H         5.5554928793        1.7043413045       12.9139052007
  C         4.7214441574        2.3894318140       13.1212907654
  H         5.2373654398        3.2930339474       13.2684537676
  C         3.6494475295        2.5272500433       12.0136656150
  C         4.0324731209        2.0170263185       14.4256198261
  C         4.2226952220        2.9140499754       10.5931369620
  H         3.0088238632        3.4229357685       12.2336959291
  H         3.0979589249        1.5501591665       11.9733360874
  H         3.6463306422        1.0179425534       14.4911496585
  H         3.1423446714        2.6801351700       14.5702480951
  H         4.6473408445        2.3473757213       15.2847323486
  C         4.5260089254        1.6348890992        9.7653227967
  H         3.5516122241        3.6786853827       10.1358061830
  H         5.1110696035        3.5568286779       10.7536312284
  C         5.2865292213        1.9173619583        8.4130174074
  H         3.6758114709        0.9598504771        9.6230757445
  H         5.0985049351        0.9696624939       10.3925415755
  C         6.5907095730        2.6998730007        8.5752854259
  H         4.5692449936        2.2549194986        7.6357268587
  H         5.4734504115        0.8760250598        8.1242522383
  C         7.7532048175        1.8966804129        9.2351147922
  H         6.8681684836        3.0416129416        7.6046581590
  H         6.4171427267        3.6332098559        9.1477130309
  C         9.1010178943        2.6930810743        9.3565027751
  H         7.9651459425        0.9538866183        8.6344355893
  H         7.6220395861        1.4675620514       10.2329331287
  C         8.7191671749        4.0578679224       10.0010535510
  C         9.4923631710        3.3619372665        8.0785928242
  C        10.2947253198        1.9800874347       10.1605112039
  C         8.8528357230        5.1394686492        9.1427457374
  C         8.3219471846        4.4746093050       11.2281945259
  C         9.3955654416        4.7013934430        7.9327460858
  C         9.9324940130        2.7429495735        6.8967190461
  H         9.9912048339        1.6402920077       11.1249096144
  H        10.6951671483        1.0410128946        9.6432060077
  C        11.5074097302        2.8840535218       10.3910880844
  S         8.4233895617        6.6443598361        9.7533166910
  C         8.0629790665        5.8771526570       11.2362430571
  H         8.1422892290        3.7065836632       11.9283618384
  C         9.8359222462        5.2835453789        6.7734258954
  H        10.1350988703        1.6683048650        6.9647190575
  C        10.3258960728        3.3154761410        5.7256955978
  H        11.2851684803        3.8281660155       10.8931905748
  H        11.8459499956        3.1281761237        9.4000342836
  C        12.6248534049        2.1990142016       11.2082137656
  C         7.6042525329        6.5275865334       12.4650115682
  C        10.2908215492        4.6437740198        5.6244852092
  H         9.9344750000        6.3451777219        6.7080107868
  C        10.7881922825        2.9436757436        4.5035587086
  H        13.5263425620        2.8308251613       11.1326892408
  H        12.8512165098        1.2168881228       10.8069191313
  C        12.3037699023        2.0507632999       12.7014521312
  C         7.6524881166        7.9149650267       12.7144197278
  C         7.3346183339        5.6607757421       13.6433021465
  C        10.7733750883        5.3921520589        4.4234160009
  C        11.0783738681        4.0535863501        3.7364641533
  S        11.0633972295        1.4741168310        3.6635539916
  H        11.7971172314        2.9631166322       13.0537564266
  H        11.6458653584        1.2492974913       12.8727545410
  C        13.6064406030        1.8426736583       13.4618934250
  N         7.8703136407        8.9338431198       11.7030931622
  C         7.3636844494        8.5195383264       13.9608946132
  C         7.0632675028        6.2301808610       14.8935018302
  H         7.2159006102        4.5799884236       13.6073776458
  C        12.1223736725        6.1398194444        4.4915880288
  C         9.6909931381        6.1240848122        3.6903464484
  C        11.5016707191        3.7178609141        2.4022714053
  C        11.5253362605        2.3482764335        2.2763515456
  H        13.9917899068        2.8822263664       13.4907212331
  H        14.4063849917        1.3741254784       12.8239033694
  C        13.5845417697        1.2482693555       14.8518878757
  S         7.8422021788       10.3821159265       12.4553496171
  N         7.3831801012        9.8634854512       13.8824187802
  C         7.0667920455        7.7482152165       15.1188971550
  H         6.8972667971        5.5871377310       15.7295302941
  H        11.9324422270        7.0231478079        5.0713441382
  H        12.5519166665        6.4626448826        3.5148749992
  C        13.2957925646        5.3891094818        5.1427662057
  H         9.3720475686        7.0111603228        4.3350368187
  H        10.2349425293        6.5408331680        2.8777347425
  C         8.5548297745        5.3119675560        2.9929638958
  H        11.6503775202        4.4315638414        1.6351532990
  C        11.8168508024        1.5650789612        0.9974015454
  H        13.2954099106        0.1758127491       14.7414667025
  H        14.5462158880        1.2651244910       15.2380842440
  C        12.7175460650        2.0880352390       15.7680602327
  C         6.8610131300        8.4441360746       16.3276929468
  H        13.0261736028        4.8181007643        6.0361954645
  H        13.6533324932        4.5795006219        4.5695133639
  C        14.4607420292        6.3038613719        5.3934741798
  H         8.2061486397        4.5964895816        3.7007095191
  H         8.9218686725        4.7962521235        2.1096266341
  C         7.3520527769        6.2192467365        2.4876970457
  C        11.8955452523        0.1612658778        0.8052698174
  C        12.0595510910        2.3229119166       -0.2480213052
  H        11.7893476095        2.4285528702       15.2846466700
  H        13.1754822478        3.0676308123       15.9063225071
  C        12.4792151070        1.4917753807       17.1351791483
  H         6.9872019646        9.5509652721       16.2755929085
  C         6.6240255705        7.9921429925       17.5764596134
  H        14.1963220904        6.9990619838        6.1504650661
  H        14.7961983500        6.8889783729        4.4958012422
  C        15.6988533924        5.4672587494        5.8411373074
  H         6.9031979751        6.6705800107        3.3324131156
  H         7.8294530323        7.1232439238        1.9995359822
  C         6.3178645994        5.5298822979        1.5234842969
  N        11.8147517894       -0.7332373601        1.8903536437
  C        12.1809828985       -0.4508991083       -0.3948645716
  C        12.4187557087        1.6794268014       -1.4269649329
  H        12.2223148933        3.3937874007       -0.2259761320
  H        11.8041107576        2.1225814911       17.7490868996
  H        13.4633763310        1.4079895702       17.4775512147
  H        11.9528664217        0.5452226856       17.0981650959
  S         6.3672057989        6.3798258080       18.0650889586
  C         6.6815849322        8.9179063468       18.7223459676
  H        15.3938946174        4.7817378687        6.6420625739
  H        15.8758527847        4.8797489409        4.9237662527
  C        16.8094264115        6.4465995538        6.2865354021
  H         5.5885994236        4.9310096707        2.1554924836
  H         6.8635566786        4.8691960482        0.8746458206
  C         5.5411884686        6.4767663640        0.6139458954
  S        11.8093764896       -2.1979167865        1.2661684302
  N        12.1744508440       -1.8212536826       -0.2599700592
  C        12.4502385881        0.2150575885       -1.5893499628
  H        12.6878243680        2.2891006658       -2.3100823276
  C         6.0864385264        6.9687437973       19.6599754741
  N         6.3088296225        8.2778845099       19.8568674239
  O         6.9452301771       10.1599167054       18.5501879451
  H        17.0523121598        7.1480767612        5.4904249919
  H        16.5574263840        7.0344060914        7.1669529062
  C        17.9605847114        5.4887434574        6.6890687950
  H         6.1877530406        7.1782675986        0.0633827225
  H         5.1330773248        5.8714885305       -0.2061680573
  C         4.5586938796        7.3993192844        1.3172691640
  C        12.7207709156       -0.5106364286       -2.7927788028
  S         5.5781894532        5.9999852802       21.0090313144
  C         6.1784659099        8.9214948621       21.1434447912
  H        17.5050974592        4.8209319937        7.4278672035
  H        18.1957356544        4.7946522820        5.8794489952
  C        19.2451434474        6.1795743853        7.1846776723
  H         4.8199486546        7.4343164896        2.3519635097
  H         3.5591751907        7.0249212734        1.3173766466
  C         4.5535923046        8.7880553095        0.7376639814
  H        12.6494974694       -1.5388739988       -2.6004923688
  C        13.1496579243       -0.1242161588       -4.0599858989
  H         5.5203740013        8.4089825221       21.9072350366
  H         5.5753650203        9.8479331068       20.8129835234
  C         7.5174868101        9.1073626744       21.8026831059
  H        19.4888950268        5.5934689869        8.0513348521
  H        19.0819872300        7.1681321918        7.5396053574
  C        20.3253293319        6.1987372006        6.1054378330
  H         5.5487575272        9.2489295473        0.7753669142
  H         4.2361775877        8.7070815954       -0.3218358291
  C         3.4876596681        9.8026801108        1.3941929387
  S        13.8007512065        1.4305226507       -4.5630730042
  C        13.3692065245       -1.1902678131       -5.0972952184
  H         8.0741548664       10.0356695966       21.6788114546
  H         8.2044550020        8.2681634655       21.5970790925
  H         7.3573704643        8.9690709369       22.8272902909
  H        21.1677000685        6.6971576962        6.5330657998
  H        20.9178448271        5.2921140057        5.7066290604
  H        19.7593884635        6.6051700663        5.2212381806
  H         3.9208056685       10.8288847759        1.2353662356
  H         2.5122931106        9.9601841515        0.8295373608
  H         3.3057110069        9.7734605993        2.4627791538
  C        14.3544804046        0.6796137723       -6.0222894045
  N        13.9606894897       -0.6327835530       -6.1547000409
  O        12.9943601387       -2.3319403304       -4.9411880337
  S        14.9273740191        1.4211881202       -7.5050412181
  C        14.1009120309       -1.3803628888       -7.3737638757
  H        14.4852039113       -2.3773152414       -7.0537646742
  H        15.0077482877       -1.0254510016       -7.8504946448
  C        12.9340822189       -1.4159522247       -8.2669398177
  H        12.8036636773       -0.4289574338       -8.7533267906
  H        12.0788801307       -1.8055921297       -7.6790599138
  H        13.1287328280       -2.2225223290       -8.9395058357
