352
 i =    65900, time =    32950.000, E =        99.9399446125
  H        12.4307753533        6.7187954383       32.2125734313
  C        11.5920725799        6.0196182951       32.2354914230
  H        12.1232435403        5.0711738499       32.3895985410
  C        10.7908956133        6.0635405950       30.9444458571
  C        10.6701471387        6.3637097216       33.4292188965
  C        11.6642635748        5.9249325571       29.6958854269
  H        10.0489628558        5.2332555211       30.9779597849
  H        10.1254488936        6.9927082138       31.0123852671
  H        10.4376852252        7.4023308983       33.4702116111
  H         9.7303090529        5.8172185375       33.4059499778
  H        11.2196348324        6.1594423718       34.3709154642
  C        11.0139722749        5.2300569354       28.5241357527
  H        12.6140380145        5.4597613162       30.0643915308
  H        11.8451670887        6.8760771151       29.2555487507
  C        11.2619625940        5.8750659686       27.0855732868
  H        11.4492568999        4.1951714898       28.5378044256
  H        10.0061864479        5.1230342735       28.7858538693
  C        10.3460933092        5.2084371641       26.1133333584
  H        12.2724686634        5.7651970570       26.7248952875
  H        11.0219503885        6.9243711078       27.0529168862
  C         9.1241692046        6.0589485812       26.0732853865
  H        10.6752924568        5.1391205038       25.0627849710
  H        10.0630719340        4.1835915524       26.5795058555
  C         7.8718649402        5.3537587384       25.5737001605
  H         8.9526399948        6.5342798567       27.0544254199
  H         9.2708746116        6.8609671592       25.3207973915
  C         7.4478222904        4.0077706490       26.2514407551
  C         8.1276163392        4.6418798879       24.2751078217
  C         6.6451394082        6.3425301622       25.6094879999
  C         7.4469229015        2.8801405118       25.4061191616
  C         6.9545976460        3.6099904277       27.4680412280
  C         7.9000730658        3.3114499264       24.1627995233
  C         8.5104294176        5.2132859518       23.0879054865
  H         6.7984633524        7.3631271961       25.0749365012
  H         6.4664693322        6.6353329863       26.6663611534
  C         5.4025866291        5.6284548068       24.9870463064
  S         7.1417690948        1.3469308734       26.1392181181
  C         6.6494434124        2.2717771783       27.4827331822
  H         6.7957039859        4.3199490523       28.2538024606
  C         8.1103161611        2.6741041963       22.9712432503
  H         8.5728662721        6.2932429455       23.0748564295
  C         8.7760205332        4.5742482254       21.8742470080
  H         5.7435988628        5.2890667777       24.0348439734
  H         5.2067588006        4.7051640193       25.4435169467
  C         4.2417619157        6.5446288802       24.7786341726
  C         6.0528666889        1.5292536068       28.6732117357
  C         8.6143259868        3.2120235531       21.7890824158
  H         7.9944187883        1.6171025869       22.9053453647
  C         9.2089059305        4.9663359430       20.6341673305
  H         3.7677772168        6.0496917921       23.9464184447
  H         4.5672469446        7.4533285015       24.3479226165
  C         3.3469815700        6.8487319709       25.9372546226
  C         6.0959540424        0.1696455281       28.9324395634
  C         5.4686730392        2.3563455167       29.7528416207
  C         8.9908115293        2.5142080087       20.4588399683
  C         9.3582117787        3.8633741449       19.7971835021
  S         9.4112650716        6.4357718630       19.9030985135
  H         2.5955357305        7.6167450378       25.5689912322
  H         3.8867876173        7.2703776286       26.8160780123
  C         2.5963691278        5.6027556990       26.4195528055
  N         6.6090098433       -0.8335637334       28.0772755528
  C         5.7210150629       -0.3555564750       30.1716244055
  C         5.0539214545        1.8108255269       30.9639908765
  H         5.3571483773        3.4371790524       29.7277612009
  C         7.7408419323        1.7737063673       19.7687807842
  C        10.2818861525        1.6272138361       20.8027285128
  C         9.4936253697        4.3025371123       18.4616233818
  C         9.5925749151        5.6879149168       18.3781711663
  H         1.7772309935        5.4173119917       25.6635363057
  H         3.2848777788        4.7484279687       26.4670512142
  C         1.8905051668        5.9219746552       27.7515018784
  S         6.3925383147       -2.2725830465       28.8472678315
  N         5.8130924595       -1.7218224328       30.2513190600
  C         5.2450702543        0.3845089590       31.2432249180
  H         4.5959371323        2.4713517945       31.6987539462
  H         7.4625131212        1.0142441193       20.4494174436
  H         8.1213275763        1.2147692222       18.8611622617
  C         6.4783521116        2.7130892386       19.5379827025
  H        10.5350667915        1.0602971624       19.8868155779
  H        10.1268522114        0.8361840699       21.5711467915
  C        11.5255889030        2.4198402193       21.0623021005
  H         9.5801321723        3.5110255326       17.7720023629
  C         9.8968787575        6.4364544660       17.1437609890
  H         1.2314498148        5.0565293050       27.8835387475
  H         1.5295786449        6.9371468471       27.7395251569
  C         2.8961519896        5.7488447862       28.8224384301
  C         5.0254601144       -0.2708516306       32.5087182677
  H         6.7412893477        3.4245033243       18.7639525677
  H         6.2120298662        3.3726660151       20.3599124928
  C         5.3345662309        1.8155553279       19.2102645124
  H        11.4004754047        2.9442738923       21.9459451667
  H        11.6897037903        3.1379236857       20.2327574838
  C        12.7036384748        1.5181386999       21.0756724824
  C         9.9475349777        7.8440909208       17.0043415391
  C        10.0313741291        5.7496320667       15.8146639472
  H         3.1274423276        4.6817648313       28.7044430622
  H         3.7618487879        6.4409206230       28.6636672893
  C         2.2566653883        5.9120830295       30.1796673390
  H         5.2067281520       -1.3133808410       32.5062401994
  C         4.8508193526        0.1859522993       33.8040587006
  H         5.0653264743        1.2053211226       20.0976971521
  H         5.5906369037        1.1349602895       18.4222239577
  C         4.2589424865        2.8190283750       18.7152721433
  H        12.6091775987        0.9128712443       21.9792659058
  H        12.6725880710        0.9140476939       20.1422586555
  C        14.0665495329        2.2859856216       21.1167417843
  N         9.7757684266        8.7308143135       18.0226012914
  C        10.2350375494        8.4616336300       15.7634149770
  C        10.3903662065        6.3123242762       14.6073699890
  H         9.9069923508        4.7082646561       15.8358043887
  H         1.6507569134        5.1008894013       30.5007042512
  H         3.0644845339        5.9512637080       30.9992110980
  H         1.7128637890        6.8082295315       30.3617751639
  S         4.6162220673        1.8481922455       34.2176784133
  C         4.7946184334       -0.8062910955       34.8907073490
  H         4.1688793907        3.7440068433       19.3820764581
  H         4.5448217788        3.2388916860       17.7495558196
  C         2.9292413486        2.0684000317       18.5245050078
  H        13.8582853848        3.3221280099       20.9319243151
  H        14.7049183255        1.9838087046       20.3341361890
  C        14.7589781359        2.1746423603       22.4662115221
  S         9.7508519529       10.2835007764       17.3709787103
  N        10.2831545082        9.8424735814       15.8461428683
  C        10.4674893487        7.7566605306       14.5515608534
  H        10.4084090756        5.7138304182       13.7382918035
  C         4.4930410291        1.2197497457       35.8176494303
  N         4.6045685449       -0.1343393272       35.9796831880
  O         4.9414312367       -2.0334717887       34.7782520606
  H         2.0501949189        2.7078612487       18.4876745649
  H         2.8612982581        1.4998720830       19.4425061191
  C         2.9315475937        1.0230411780       17.3995934192
  H        14.1093832249        1.9353476283       23.2996032901
  H        15.3417824705        1.2495785704       22.4701013256
  C        15.7375599099        3.3205946452       22.7712779902
  C        10.8888895666        8.4885177755       13.3832508718
  S         3.9708502572        2.1273119096       37.2234019137
  C         4.6631612023       -0.8497801790       37.2817439351
  H         2.1076385905        1.2524012561       16.6772452420
  H         3.7922388995        1.1164259487       16.8005274761
  C         2.7374380025       -0.4383175016       17.8584448071
  H        15.7904687385        3.4748876637       23.8871591156
  H        15.2869076550        4.2429593628       22.4647628843
  C        17.0855528548        3.1870751279       22.0766963580
  H        10.7119923833        9.4844947686       13.5288529480
  C        11.3675802801        8.1519736496       12.1685547205
  H         4.2677440319       -0.1832862771       38.0707439461
  H         4.1150266895       -1.7599057709       37.2796449856
  C         6.1758055097       -1.0554926829       37.5229176136
  H         3.5122982755       -0.5638816537       18.5310500106
  H         3.0119799011       -1.0810089864       17.0427548260
  C         1.3890655318       -0.7070339331       18.4590285579
  H        16.8804577515        2.8018558572       21.0830228030
  H        17.4630281096        4.2364185450       21.9577013816
  C        17.9063216977        2.2497041111       22.9437765275
  S        11.7145858151        6.6197906681       11.5116214497
  C        11.5961170979        9.3099187896       11.2151488389
  H         6.5432529694       -0.2764780192       38.1477502474
  H         6.2747262322       -2.0426399387       37.9632168811
  H         6.7374284555       -1.0325872718       36.6184685631
  H         1.5165123284       -1.4647921010       19.2353599196
  H         0.4826171039       -0.9063074179       17.8335913003
  H         1.0429161302        0.2344368886       18.9755458474
  H        17.6039152283        1.1565518924       22.9728232903
  H        17.9549036204        2.5734423812       23.9773141940
  H        18.9412945046        2.3053858241       22.6281714176
  C        12.1949805899        7.4183640848       10.0373996715
  N        12.0993637586        8.7934608559       10.0484934425
  O        11.1983902516       10.5071026591       11.3528118207
  S        12.9229698406        6.6122211978        8.6637284805
  C        12.1972011466        9.6355902107        8.8631950644
  H        12.4994033486       10.5752213167        9.2477317439
  H        12.9255258911        9.3145447899        8.0529145229
  C        10.9007431406        9.6945255177        8.0608122335
  H        11.0504755173        9.8577874627        7.0101469553
  H        10.4039876322        8.7812542994        8.1231126243
  H        10.2529878104       10.5456872010        8.4434795978
  H         4.6440677326        1.7209686613       12.4801431894
  C         4.2132003993        2.7045515139       12.4852454409
  H         5.0949612725        3.3051392802       12.4271342869
  C         3.0631319305        2.9100693823       11.4092123397
  C         3.6695285603        2.8797777475       13.9035764725
  C         3.6187682745        3.0285257247        9.9639536365
  H         2.5276809888        3.8367488227       11.6014158557
  H         2.2746759598        2.2065318144       11.3577971008
  H         3.6475352114        3.9082498121       14.2163536930
  H         4.0025364435        2.1324216275       14.5737528032
  H         2.5953870296        2.6609579562       13.7743593623
  C         4.3648061625        1.8340361064        9.4626473702
  H         2.7498257942        3.1615395257        9.3259932021
  H         4.1274839144        3.9198486231        9.9311420056
  C         5.0147705553        2.1733499173        8.1200173960
  H         3.6648302742        0.9865765746        9.3180450956
  H         5.0934609277        1.6743452798       10.2365889004
  C         6.2867537509        2.9890170748        8.3278044518
  H         4.2307529671        2.6811938779        7.5823297584
  H         5.1049423199        1.3111686038        7.4206135438
  C         7.5182044877        2.2290063538        8.8805174200
  H         6.5251983951        3.5786494562        7.3912214147
  H         6.1030764715        3.8113750094        9.0644746680
  C         8.8392986578        3.1517422617        8.9757025858
  H         7.7249783612        1.2664193898        8.4449872365
  H         7.4129948838        1.9313738809        9.9381383793
  C         8.5484109295        4.4380358265        9.6657519449
  C         9.2314196237        3.7818648988        7.7330677860
  C        10.0096588735        2.4063390156        9.6454385683
  C         8.6684248246        5.4945227446        8.8432496208
  C         8.0513253314        4.7840271454       10.9636078974
  C         9.1576494506        5.0977459910        7.5943608000
  C         9.7346530739        3.1530943230        6.5805443641
  H         9.6087823355        1.9824991283       10.5634625360
  H        10.4112607104        1.5021836146        9.0982140639
  C        11.1784741980        3.3251612352       10.0228397268
  S         8.3824889683        6.9877518108        9.6224397112
  C         7.8829061974        6.1106531660       11.0970250518
  H         7.7536553670        3.9810921913       11.6470513785
  C         9.5878424763        5.7123908070        6.4225231669
  H         9.8488039599        2.1060793159        6.6347701511
  C        10.1425030662        3.7474469607        5.4493903669
  H        10.8949112157        4.3230766255       10.4071698154
  H        11.8794055559        3.5019378582        9.2039928483
  C        12.0864985424        2.6023614243       11.0479185163
  C         7.4938002491        6.8358791361       12.3728293669
  C        10.1481922363        5.1221702719        5.3247208229
  H         9.5279076025        6.7705562221        6.3905621293
  C        10.6606732923        3.3185505685        4.2692864453
  H        13.0521299630        3.0898003711       10.9184585833
  H        12.3443088269        1.5583567840       10.7137425618
  C        11.5572675273        2.6492340349       12.4484448286
  C         7.5676646981        8.2326147925       12.6867154266
  C         7.0565182037        6.0352682320       13.5227896743
  C        10.6100676516        5.7698019093        4.0848103188
  C        10.8745235092        4.4117660104        3.4082642211
  S        10.8505430783        1.7886850179        3.6074837978
  H        11.7346015215        3.5799643809       12.8999409263
  H        10.4730016615        2.5502541621       12.4263434344
  C        11.9754035606        1.4431938297       13.2820133360
  N         7.7853719465        9.2400282854       11.7511611674
  C         7.3554884933        8.7586673876       13.9619930656
  C         6.7216472433        6.5382230534       14.7872409832
  H         6.7807694400        5.0227844574       13.2727232354
  C        11.8830891774        6.6009276862        4.1375842002
  C         9.4044755896        6.5705928480        3.3150201054
  C        11.2759540367        3.9856951563        2.1295019347
  C        11.3572340283        2.6141198025        2.1196265532
  H        12.9904274965        1.1716328205       12.9418511994
  H        11.3366157290        0.6431834506       13.0102021511
  C        11.8803001939        1.7227050784       14.8132846883
  S         7.7967865389       10.7278653988       12.4624660529
  N         7.5367376261       10.1425128018       14.0074006318
  C         7.0024128736        7.9396483804       15.0807106527
  H         6.3646410079        5.9448315878       15.6145516256
  H        11.6206657942        7.5931300997        4.5702712488
  H        12.1726910869        6.7384333183        3.0825632572
  C        12.9256653892        6.0133329299        5.0521060328
  H         8.8440880324        7.2110477208        4.0165867236
  H         9.8038052214        7.1920906948        2.5359223047
  C         8.3708184422        5.6794287842        2.6583280000
  H        11.4432732340        4.7017813425        1.3087747982
  C        11.6614219025        1.8203767118        0.8884157460
  H        11.1151535443        2.4325396016       15.0572042416
  H        11.3015195793        0.9522703287       15.2611463179
  C        13.2290419156        2.0410983764       15.5349773695
  C         6.8210103593        8.5923873453       16.3525338886
  H        12.6544694973        6.1466357807        6.1057926583
  H        13.0226979090        4.9161887510        4.7859664318
  C        14.2704148496        6.7041166862        4.9308938156
  H         8.0653189007        4.9354684733        3.3894954546
  H         8.7482402496        5.0555518368        1.8059056214
  C         7.1945960106        6.4767380357        2.1562309101
  C        11.7932988569        0.4600875090        0.7306948101
  C        11.7292664222        2.5865778765       -0.4377669278
  H        13.8982385782        2.3390585255       14.7895266916
  H        13.6466640746        1.0920985176       15.9640323792
  C        12.9383131570        3.0328435673       16.6440177518
  H         7.0861038240        9.6584984847       16.4063301449
  C         6.4198194044        8.0888697196       17.5449775972
  H        14.1231346582        7.4741243830        5.7154265894
  H        14.4135958341        7.1957260778        3.9579934625
  C        15.5685525723        5.9378854553        5.1790103663
  H         6.6167367045        7.0206093594        2.9417626484
  H         7.7699315121        7.2644282190        1.6892218159
  C         6.2168128953        5.6840991954        1.3617571249
  N        11.5987378392       -0.4515547437        1.7307321328
  C        11.9776592034       -0.1013258104       -0.5587683787
  C        12.1133426194        1.9941530045       -1.6280381780
  H        11.5392479927        3.6212028985       -0.5099862804
  H        12.4115250380        3.8443097061       16.2900827565
  H        13.8504766666        3.4035997559       17.0639379159
  H        12.4712730522        2.4919501009       17.4564235048
  S         6.3571183858        6.4367683462       18.0219400551
  C         6.0571943900        9.0562165874       18.5612351994
  H        15.3927592614        4.9273123345        5.2679577301
  H        16.1935665009        6.0976152230        4.2734693085
  C        16.3748619778        6.3728874713        6.3707338271
  H         5.8761319487        4.7887943148        1.9030454374
  H         6.6469246966        5.2028616475        0.4933834231
  C         4.9721187862        6.4705926845        0.9769992893
  S        11.6939366371       -1.9435167161        1.0698844167
  N        11.9192745062       -1.5436124798       -0.4852486999
  C        12.2106141113        0.5470977251       -1.7819734875
  H        12.2254224242        2.7131427951       -2.4707882177
  C         5.9217427519        7.0692054724       19.5744139855
  N         5.6643713099        8.3966876874       19.6510380106
  O         6.1861314555       10.2750083292       18.4334321718
  H        16.5942706039        7.4058753275        6.3688682379
  H        15.6796597904        6.3313607918        7.1919738601
  C        17.6496346043        5.5291712348        6.6058988651
  H         5.2415389442        7.4002768400        0.4250953230
  H         4.4924452696        5.9267060468        0.2329012561
  C         4.0207218735        6.8719526665        2.0974791155
  C        12.4800970074       -0.1485352942       -3.0325705895
  S         5.5194016319        6.0665585347       20.9915088265
  C         5.3222287669        8.9873280932       20.9675133940
  H        17.2658878987        4.7203030049        7.2422475985
  H        18.0923746478        5.1842925151        5.7193881835
  C        18.7845905767        6.2625620584        7.3954409326
  H         4.3889684154        6.7292556558        3.0748073159
  H         3.2342529374        6.1709763321        2.0089092605
  C         3.4596442815        8.2912130062        1.8844609585
  H        12.1727905878       -1.2129061489       -2.9862676058
  C        12.9430850683        0.2181122696       -4.2911613243
  H         4.4006457807        8.5090373182       21.3039111423
  H         5.2063969499       10.1104850777       20.9355912806
  C         6.4273944383        8.8517016795       21.9483941838
  H        18.8791061105        5.7708602211        8.3692492963
  H        18.5108819832        7.2669869550        7.6337536931
  C        19.9844991268        6.3059013264        6.4711726389
  H         3.2538967071        8.4889138513        0.8134630949
  H         2.4372891740        8.3146177590        2.2404780648
  C         4.2232128732        9.4550193585        2.4986826276
  S        13.5155125973        1.7680237540       -4.7486492330
  C        13.0947684911       -0.8160605711       -5.3252911970
  H         7.2420585148        8.2287889663       21.5608470050
  H         6.1084042931        8.5127929340       22.9072565310
  H         6.7954769691        9.8900570357       22.0902068938
  H        20.3706797119        5.3116221059        6.1592856407
  H        19.9450340254        7.0086336938        5.6730568175
  H        20.7509883265        6.7569022057        7.0746662482
  H         4.5798218134        9.1650186147        3.4669287968
  H         5.1385911921        9.5918403304        1.9180193732
  H         3.6146324736       10.3700039828        2.6036526907
  C        14.0171103804        0.9810247426       -6.2285450294
  N        13.8582627887       -0.3295657469       -6.2964301971
  O        12.7468739710       -2.0106722135       -5.1352000085
  S        14.6612065854        1.8572103182       -7.6176627722
  C        14.0370729895       -1.1114588974       -7.5284543435
  H        14.1612937280       -2.1879700165       -7.3034291731
  H        14.9135970167       -0.7285558106       -8.0899209840
  C        12.9116625518       -0.9574945333       -8.5814413530
  H        12.8853909607        0.0348978342       -8.9759713834
  H        11.9210507964       -1.0519791224       -8.1877811487
  H        12.9272041916       -1.8292642258       -9.3558528873
