352
 i =   114500, time =    57250.000, E =        99.6978169484
  H        10.0324542804        4.0775882053       32.5611272030
  C        10.3642418195        5.1243630530       32.7594568681
  H         9.4786560158        5.7726973840       32.8013920712
  C        11.2889048537        5.6657159227       31.5811482446
  C        11.1079728093        5.0642845035       34.1255308080
  C        10.5711248881        6.2562308882       30.3449814260
  H        12.0364254330        6.2535520779       32.0655976830
  H        11.7958724974        4.7408388518       31.2566411431
  H        11.3912110988        6.0168266980       34.6058092849
  H        10.5692169577        4.5406777934       34.8944901663
  H        12.0406396451        4.5362856570       33.9845019218
  C        10.1331803059        5.2366479427       29.2375695551
  H        11.1563143964        7.0415444570       29.9195105185
  H         9.6896538460        6.7535339964       30.7677772093
  C        10.5219575391        5.7031831982       27.8150957454
  H        10.5197792485        4.2408671091       29.3744762929
  H         9.0267344511        5.3038366780       29.3370076335
  C         9.5898680501        5.1806117300       26.6757659460
  H        11.5085121039        5.2989857009       27.6675772236
  H        10.4236343926        6.7944960546       27.7043451644
  C         8.2691999173        6.0214449694       26.4230687688
  H        10.2598232313        5.0830230099       25.7996264651
  H         9.3749415895        4.1349221280       26.9113392167
  C         7.0207246231        5.2395794019       25.9356363661
  H         7.9226593897        6.6226784385       27.1924044042
  H         8.3506251528        6.7589445046       25.5676844263
  C         6.7463919023        3.8932017947       26.6076924210
  C         7.4344854550        4.5812495371       24.6200864743
  C         5.7305916224        6.0322283658       25.8704066203
  C         7.0209964503        2.8076354811       25.7684922602
  C         6.2570278881        3.4580587484       27.8728915432
  C         7.4130106029        3.2325493858       24.4486016449
  C         7.8420899774        5.2283086426       23.3679614102
  H         5.9226230545        7.0468635002       25.5541871109
  H         5.1933912087        6.0690817019       26.8123454433
  C         4.6832079921        5.4140579535       25.0512970905
  S         6.7762031913        1.2948063210       26.4497292444
  C         6.1585365419        2.0626362352       27.8610940849
  H         5.8807244489        4.2177634759       28.5922263548
  C         7.7399093957        2.5701256731       23.2601101139
  H         7.9381207201        6.3155694676       23.3610409149
  C         8.1325056984        4.5825704393       22.2036596415
  H         4.9062370235        5.3794166629       23.9909073033
  H         4.4590307006        4.4120808457       25.4235032460
  C         3.4181646109        6.2527205693       24.9602685078
  C         5.6613403811        1.2676502506       29.0586892208
  C         8.1265004104        3.2438103091       22.1029159778
  H         7.7887282317        1.5312946083       23.3300409978
  C         8.5289752917        5.0291715254       20.9376514422
  H         2.7366269161        5.8761507109       24.2581518782
  H         3.5655833729        7.2831541043       24.6185645965
  C         2.6194758428        6.3267273623       26.2958466855
  C         5.6904592258       -0.1153105261       29.1599518994
  C         5.2229655697        2.0683140854       30.2453543047
  C         8.5963161149        2.5865446693       20.8424781474
  C         8.7771057847        3.9530192951       20.1834844263
  S         8.7109086096        6.5651058731       20.1919613351
  H         1.9318790128        7.1873254357       26.0871944811
  H         3.2314330603        6.7646344873       27.1235661802
  C         1.7600403036        5.0593048300       26.5970837180
  N         5.9983115756       -1.0069604740       28.1426561900
  C         5.3112551876       -0.7384391954       30.3668595154
  C         4.9547055490        1.4495955314       31.4404429116
  H         5.0867508884        3.1056600588       30.2072138478
  C         7.4443536181        1.6274515629       20.2814020430
  C         9.9432030354        1.8839144358       20.9417956070
  C         9.0331224568        4.3245896894       18.8436028730
  C         9.1102752114        5.6960132107       18.6847697551
  H         1.3452942636        4.6130630289       25.7174618840
  H         2.3595778828        4.2713626236       26.9185742490
  C         0.6783191969        5.3659010566       27.5655881501
  S         5.9305304318       -2.5322588227       28.8047730100
  N         5.4072363797       -2.1567082110       30.2882078929
  C         4.9580365335       -0.0297668973       31.5220046596
  H         4.5020806782        2.0062196586       32.2702125608
  H         7.0319012643        0.8392379345       20.9279272375
  H         7.8121170819        1.0949495796       19.3790622598
  C         6.2816730741        2.5329789885       19.7221401231
  H        10.1152330154        1.5609832713       19.9588251045
  H         9.9050663645        0.9810385150       21.5612800657
  C        11.2005544442        2.6607433344       21.4558694312
  H         9.2059685594        3.5700489614       18.1031802872
  C         9.5243169303        6.3371816403       17.4015437464
  H        -0.0948825586        4.5586203958       27.5624138323
  H         0.0844043791        6.1853590423       27.1890632340
  C         1.0485363584        5.6359937185       29.0328148526
  C         4.7589771893       -0.7835650105       32.7504754989
  H         6.5540878349        3.2702114893       18.9815205975
  H         5.7285749267        3.1040222431       20.4994652814
  C         5.2238423641        1.7188525976       19.0441137947
  H        11.1257325185        3.2115803131       22.3688253061
  H        11.3461146211        3.3664581028       20.6369729166
  C        12.4742665902        1.8513900688       21.5929805787
  C         9.7356206537        7.6742002612       17.2021105293
  C         9.7271917743        5.4386271760       16.1601578307
  H         1.3519689332        6.6761665665       28.8947876456
  H         0.1936632258        5.5500823611       29.7141169149
  C         2.2855397987        4.9626752870       29.5411468616
  H         4.7434535120       -1.8685580562       32.6100288715
  C         4.4212418333       -0.4440522519       34.0304630749
  H         4.5936416270        1.2499236972       19.7308692930
  H         5.6219476903        1.0237195243       18.3225609959
  C         4.3393139432        2.6101773490       18.2365089800
  H        12.3112258843        1.1272546261       22.3691447010
  H        12.7901186050        1.3963049095       20.6987588146
  C        13.6520634729        2.8176086017       21.8028090259
  N         9.4644057512        8.6045415714       18.2342371846
  C        10.0812179497        8.1958996843       15.9757921299
  C        10.3653000448        5.9203230289       15.0134731934
  H         9.6996089008        4.3569560326       16.2654832106
  H         2.1779550228        4.6900148725       30.6053207845
  H         2.4161718131        4.0115785837       28.9742363676
  H         3.2492353530        5.4785356796       29.2633127842
  S         4.1400784995        1.1319890698       34.6783417120
  C         4.3310637537       -1.5711737386       35.0260255318
  H         4.1158305826        3.4042845642       18.9813758746
  H         4.8705306798        3.0887214583       17.4390654083
  C         3.0209012814        1.8744333525       17.9743804490
  H        13.4413178313        3.7286433993       22.4451383454
  H        13.8556127897        3.3651724947       20.8554702304
  C        14.8799199615        2.0430947433       22.3582582235
  S         9.6169466466       10.0694259489       17.5350531439
  N        10.1054898884        9.5626095757       16.0383943548
  C        10.4770774028        7.4089732099       14.8301251470
  H        10.7091372883        5.2454971367       14.2669668417
  C         3.8820273831        0.3535585954       36.2460288848
  N         4.0426646425       -0.9864822118       36.2378929958
  O         4.2972451228       -2.7917921839       34.8060520179
  H         2.1265285675        2.5053052958       17.7381786670
  H         2.6142778737        1.3394382776       18.8111521641
  C         3.1447287113        0.7829200128       16.9250246304
  H        14.5434070470        1.5475185524       23.2468781528
  H        15.0951295714        1.2610947677       21.6411594636
  C        16.1630748185        2.9727918243       22.5886625468
  C        10.9248093222        8.0844449593       13.6985049461
  S         3.7011483278        1.1745581592       37.7888682528
  C         4.0157276780       -1.9071859675       37.3655006974
  H         2.6115556882        1.1487679798       16.0113010272
  H         4.2393555321        0.6660532829       16.6959073361
  C         2.3868154125       -0.4271600032       17.3549219139
  H        15.8997918974        3.8228899214       23.1570146626
  H        16.3988294341        3.3112563642       21.5626129149
  C        17.3178784565        2.1113326252       23.2374410455
  H        10.5521328532        9.0874588322       13.7173517772
  C        11.3713385534        7.7111317443       12.4548272790
  H         3.1988838064       -1.6903354868       38.0523842696
  H         3.8517848623       -2.9546993401       37.0952104411
  C         5.4488828138       -1.8792889745       37.9825805787
  H         1.4812045786       -0.0396648564       17.7306151768
  H         2.9014357034       -0.9384076311       18.1908500571
  C         2.1355495382       -1.4686307041       16.2451749370
  H        17.4656634546        1.1452971669       22.7234935885
  H        18.2880186995        2.6675984055       23.3088670255
  C        16.9306225630        1.7780339469       24.6707215550
  S        11.7549196750        6.1119173921       11.9967042319
  C        11.6283524061        8.7741187299       11.4811879796
  H         6.0355454853       -1.1083795723       37.5583525049
  H         5.3899003255       -1.7807944456       39.1119261925
  H         6.0405482460       -2.7956721837       37.8074395584
  H         1.3525276096       -1.0769132187       15.5914047807
  H         1.7298290545       -2.3346215495       16.7034220604
  H         3.0340295685       -1.6335827933       15.7042876640
  H        16.3576608119        0.8554545921       24.7124610855
  H        16.2763552673        2.5922326625       25.0219859896
  H        17.8684008616        1.7016670023       25.2387540665
  C        12.0457685678        6.8571039333       10.3790774787
  N        12.1110673184        8.2325386817       10.3683207715
  O        11.5047306150        9.9752683397       11.7650326297
  S        12.5949803403        5.9580961801        8.9856450829
  C        12.5598570368        9.0830154972        9.2511808682
  H        13.1169744975        9.8909356276        9.7562128597
  H        13.3600157780        8.6097468698        8.5770180182
  C        11.3753691516        9.7569635521        8.5521894090
  H        11.7048747496       10.5972284703        7.9669071074
  H        10.8991618092        9.0140844880        7.9975956374
  H        10.5727739351       10.0249625949        9.2352357045
  H         3.3709957083        4.4257956334       11.6545004550
  C         2.9025931212        3.5176461617       12.0967649438
  H         1.9709519775        3.9357810616       12.5245914636
  C         2.6264150888        2.5955667624       10.8840879530
  C         3.8949830014        2.8734578332       13.1583447118
  C         3.6803543064        2.6958061623        9.7845063295
  H         1.6402956785        2.7961510374       10.4296703160
  H         2.4860690740        1.6029996474       11.2624391395
  H         4.7737503699        2.5215512764       12.5831480964
  H         3.3238160606        2.0899416068       13.6445447304
  H         4.2419766108        3.4860646216       14.0297371171
  C         4.3176026133        1.4118010078        9.3462898457
  H         3.3064714509        3.0830217381        8.8316187692
  H         4.3327341758        3.5064012154       10.0153250905
  C         5.3853504673        1.6267476479        8.1463922478
  H         3.5829452796        0.6896697426        8.9667788027
  H         4.8123808131        0.8975440997       10.1996573589
  C         6.6626588315        2.4815487832        8.5192022771
  H         4.8317408358        1.9622866288        7.3095973165
  H         5.6015874915        0.6026506940        7.8152874242
  C         7.8260452220        1.8068572601        9.2668113301
  H         7.0259508145        2.8310740957        7.5074716246
  H         6.3875517359        3.3638313743        9.0903195122
  C         9.0273237155        2.6442188150        9.3462767905
  H         8.0122918272        0.8260226429        8.8367103687
  H         7.5525536673        1.6530235830       10.2602494635
  C         8.6817055994        4.0542302080        9.9747862911
  C         9.5031581635        3.2955378676        8.0755591950
  C        10.1352636791        2.0167948881       10.2222522897
  C         8.8127559722        5.0982103880        9.0254739670
  C         8.2534193087        4.4878356267       11.2295320770
  C         9.3398458938        4.6464400798        7.8552618025
  C        10.0000302058        2.6170134182        6.9578546726
  H         9.7486005007        1.6545626837       11.1012965719
  H        10.4102054233        1.1070368752        9.6857950961
  C        11.3991185773        2.7564991013       10.2817070171
  S         8.3659312169        6.6646634105        9.6674246570
  C         8.0777504951        5.8749258731       11.2023144828
  H         8.1234640995        3.7453423299       12.1161135843
  C         9.8555132785        5.1726953942        6.6952574007
  H         9.9660934229        1.5488447180        6.9843775856
  C        10.4322926601        3.1676095658        5.7550531149
  H        11.2366165807        3.7593544715       10.6394502905
  H        11.8836794111        2.9178772653        9.3636246327
  C        12.2894230216        2.1155129869       11.3825697324
  C         7.5232815186        6.6315137427       12.3811785755
  C        10.3482084124        4.4974443635        5.6128223237
  H         9.8143523453        6.2926905088        6.6256260110
  C        10.9110003485        2.7523801636        4.4970064493
  H        13.1406454663        2.7907236639       11.3429442478
  H        12.6640569547        1.0774270453       11.2613335225
  C        11.6976007786        2.1016288045       12.7630628663
  C         7.5858057281        8.0454432621       12.6317982488
  C         6.9975713554        5.8419502680       13.5415141040
  C        10.7939994673        5.1610217360        4.3994306927
  C        11.1226686569        3.8235577459        3.6866554027
  S        11.2263309803        1.2657059953        3.8585408441
  H        11.0019275344        2.9110414495       12.8085416289
  H        11.0021683957        1.2658557683       13.0250833829
  C        12.7527499801        2.3310091447       13.8884935018
  N         7.9970772682        8.9958590742       11.6731363651
  C         7.3056385623        8.5891614876       13.9098832667
  C         6.5696352564        6.4421246379       14.7069427463
  H         6.7683563403        4.8128465944       13.4410740945
  C        11.9976168927        6.1149047694        4.4624490799
  C         9.6028071160        5.8543765604        3.6114331815
  C        11.6166173660        3.3795689329        2.4393869162
  C        11.5843860461        1.9989021333        2.3591184157
  H        13.3673832322        3.2384162249       13.7253214768
  H        13.3902943033        1.4620839595       13.9968032595
  C        12.2251090428        2.3060253136       15.2893673801
  S         8.2048161570       10.4255950001       12.4642163474
  N         7.5343884029        9.9745158011       13.9434832499
  C         6.7534743012        7.8658727502       14.9687676429
  H         6.1451444626        5.7877557793       15.4338674713
  H        11.7253339096        7.0176077750        5.0205830568
  H        12.3110887392        6.3792349019        3.4851051181
  C        13.2224267079        5.4984972997        5.0985072617
  H         9.4215997320        6.9109656652        3.7773615264
  H         9.8564228460        5.8182037269        2.5531596060
  C         8.2711742915        5.0006226560        3.6971026965
  H        11.6811715176        4.1766011241        1.6296676434
  C        11.8464348181        1.2250558471        1.1056183189
  H        11.4037345570        2.9272128313       15.4232243297
  H        11.8570929159        1.3376097684       15.4715005348
  C        13.2400936571        2.5333887049       16.4125611809
  C         6.6013879430        8.5150875547       16.2519652939
  H        12.8427062678        5.0615417902        6.0481627670
  H        13.5277751384        4.5936527158        4.5331489198
  C        14.3596513403        6.5824292327        5.2221746518
  H         7.9775962840        4.8648162406        4.7136265117
  H         8.3092648241        4.0492613022        3.1507021108
  C         7.1085476195        5.7242493411        3.0594444395
  C        11.8797380975       -0.1670121580        0.9681452632
  C        11.9795442040        1.9883878778       -0.1825825397
  H        14.0674051613        3.1458600482       16.1113801979
  H        13.7086704804        1.5503150768       16.6114969066
  C        12.6815270920        3.1109886517       17.6955800599
  H         6.7274132457        9.5356955491       16.3369772159
  C         6.3149219523        8.0182407503       17.4884804345
  H        13.8716052987        7.4692233669        5.7336909618
  H        14.8552991051        6.7795825356        4.2804921079
  C        15.4607040761        6.1517451666        6.1598287862
  H         6.1733400225        5.2674378429        3.5064781288
  H         7.1220755109        6.7650268991        3.2075944865
  C         6.8718682870        5.6664696525        1.5404344490
  N        11.7449372126       -1.0000633783        2.0036171189
  C        12.2191442459       -0.8306035780       -0.1761737886
  C        12.2595292541        1.4039979694       -1.4147348593
  H        11.8985889416        3.0258313885       -0.1607672614
  H        13.4381669892        3.7735980199       18.1423891382
  H        12.4164167196        2.3485749101       18.4382202433
  H        11.7062250043        3.5593783324       17.5760142863
  S         5.8819867504        6.4345603567       17.8892320123
  C         6.1790432278        9.0018862590       18.6199869962
  H        16.0968855489        6.9889705447        6.4006284739
  H        14.9532166918        5.7749395445        7.1075406067
  C        16.4170755691        5.0616622403        5.5746801276
  H         7.1442058325        4.6672659392        1.2824660559
  H         7.4996308523        6.3905873323        1.0108987239
  C         5.3726761248        5.8819879022        1.1364951252
  S        12.0788888688       -2.5270538455        1.5915585699
  N        12.3630256743       -2.2358456532        0.0073089194
  C        12.4043872889       -0.1154783602       -1.4013238179
  H        12.3783678399        1.9745930032       -2.3427821629
  C         5.6931552509        7.0815498003       19.5961567902
  N         5.7603119096        8.4620962082       19.7506075803
  O         6.4615534309       10.1842746107       18.4965336163
  H        15.8556147218        4.3599405150        4.9894797132
  H        17.0552680131        5.5379571746        4.8386639173
  C        17.3749640237        4.3963495519        6.6378832036
  H         5.1861498468        5.3403769555        0.2669937673
  H         4.6517071240        5.4858807783        1.8650563608
  C         5.1533443212        7.3636447540        0.8628257140
  C        12.7657233903       -0.8733145098       -2.5465113131
  S         5.1911554718        6.0826096207       20.8914559215
  C         5.6379649124        9.2356299310       20.9529221834
  H        16.6242814551        4.0555917892        7.3516127069
  H        17.8592563162        3.4925636775        6.1707523947
  C        18.3927244041        5.3276583312        7.3657063272
  H         4.7044661122        7.4458828429       -0.1645487143
  H         6.1211180300        7.9247606287        0.7871574218
  C         4.2065455841        8.2264087545        1.8195354876
  H        12.7526163292       -1.9113463908       -2.3823908804
  C        13.0728027104       -0.5773200854       -3.8262178160
  H         4.9263985088        8.8048983310       21.6096950695
  H         5.2790357826       10.1584961951       20.5635781871
  C         6.9960809577        9.4383930376       21.5919196114
  H        18.8945913289        4.9308378256        8.2351126223
  H        17.9265123966        6.1961175784        7.7758260697
  C        19.4730725768        5.8889112006        6.3735450201
  H         4.2083225627        9.2946744336        1.5202446992
  H         3.2532121589        7.7628939452        1.7723226698
  C         4.5559727689        8.2535956491        3.3153825905
  S        13.4997104881        0.9506033062       -4.5043235201
  C        13.1893431542       -1.7393463437       -4.7780421692
  H         7.6311947797        9.4509482022       20.7394052207
  H         7.3265037315        8.7339663602       22.3856031349
  H         7.1360624738       10.4416034593       22.0398551815
  H        19.0781738075        6.4627574877        5.6050066857
  H        20.0444217531        6.5924871847        7.0383133430
  H        20.2168253827        5.1394286427        6.0535448030
  H         4.6955782723        7.2401221924        3.7650773667
  H         5.5044277397        8.7724515362        3.3397591157
  H         3.8791161878        8.8872868910        3.8515439162
  C        13.9190933600        0.0521387326       -5.9724416870
  N        13.7504670127       -1.2720613299       -5.9037961382
  O        12.9755281228       -2.8894289961       -4.4696360581
  S        14.6041613659        0.6686716846       -7.4511799248
  C        14.0326086976       -2.1457380911       -6.9612377482
  H        14.3934926662       -3.0619906373       -6.5023995195
  H        14.6997718220       -1.8374214877       -7.7355262339
  C        12.7906578327       -2.4459038677       -7.7836532022
  H        12.7683514555       -1.8288642872       -8.5844105547
  H        11.8509020631       -2.4998396903       -7.2677397699
  H        12.9522770869       -3.4373404050       -8.2237270829
