352
 i =    45300, time =    22650.000, E =        99.1417387439
  H        10.7148840707        4.7616448617       31.3986613345
  C        10.5567073326        5.7714538938       31.7762023681
  H         9.4405311262        5.8988290202       31.7940423217
  C        11.0742647082        6.8258425487       30.7286596674
  C        11.0978440358        5.9966461544       33.1980682879
  C        11.4629222659        6.2961975834       29.3739707699
  H        10.3652689083        7.6107409679       30.6825304582
  H        11.9695430081        7.2372523050       31.1157733691
  H        11.5889425256        4.9993149530       33.3907508688
  H        11.8590371673        6.8198888052       33.0815882364
  H        10.3433509220        6.1625680514       34.0041402720
  C        10.2357045523        6.1147603810       28.5792090960
  H        11.7707719840        5.2482963020       29.5245838557
  H        12.1502905254        6.9446807061       28.8004762498
  C        10.6727972056        5.7746280966       27.2000201316
  H         9.7672556116        5.1663424107       29.1093618650
  H         9.7222917337        7.0446764355       28.6391226760
  C         9.6476177681        5.1836789432       26.2082559364
  H        11.4957842104        5.0059893853       27.2789727012
  H        11.2442466040        6.5255056335       26.6809732071
  C         8.4972159212        6.0884704758       25.7386209097
  H        10.2917567099        4.8768677371       25.3889334936
  H         9.2240691194        4.3731391386       26.7580672655
  C         7.2573922815        5.3454113320       25.1149199948
  H         8.1657286549        6.7102778138       26.5336291906
  H         8.8492457859        6.8254063576       25.0249248390
  C         6.8688227325        3.9968381231       25.7329951208
  C         7.7252148843        4.6583040762       23.8834900103
  C         6.0111405278        6.2856411017       24.7731283598
  C         7.0078535210        2.9472976949       24.8973326087
  C         6.3603766586        3.6754413290       26.9536559616
  C         7.5429787614        3.3046902045       23.6814676508
  C         8.3015383431        5.2272206777       22.6879198227
  H         6.2242284677        7.0588298264       24.0322488573
  H         5.8839037324        6.9083480434       25.6367011174
  C         4.6907654579        5.5176530254       24.3977194690
  S         6.6474284901        1.4370183099       25.7014725209
  C         6.1683867392        2.3691823257       27.1477119582
  H         6.1397178154        4.4201567582       27.6584976951
  C         7.9218938028        2.6588788981       22.5711573437
  H         8.3174620118        6.2832085587       22.7542978903
  C         8.5530558480        4.5455270532       21.5519080395
  H         4.7030253362        5.3951531336       23.2983973652
  H         4.6114698844        4.6915177707       24.9898853088
  C         3.4358253672        6.3163810892       24.7593679700
  C         5.8625843250        1.7161404335       28.5117415872
  C         8.4633389443        3.2106956071       21.4380302291
  H         7.6863239928        1.5924069351       22.5327291767
  C         9.1318555584        4.8779008135       20.3393797577
  H         2.5661945571        5.8897373761       24.3071712393
  H         3.4822199751        7.3843326803       24.5639948574
  C         3.0869198217        6.3135939565       26.2488847682
  C         5.9185204378        0.3276298575       28.6876955980
  C         5.6047212782        2.5428170382       29.7362676987
  C         8.9445775594        2.4244959720       20.2202700349
  C         9.2775004325        3.7747538367       19.5069415124
  S         9.5951216846        6.2980049499       19.6379157045
  H         2.3336485298        7.0979708324       26.3055742036
  H         3.9570057876        6.5350994587       26.8600478149
  C         2.4901245470        4.9695719542       26.6008611578
  N         6.1094072271       -0.6629815127       27.6417515203
  C         5.6593997538       -0.2542930967       29.9012804587
  C         5.3378944560        1.9397257883       30.9318872717
  H         5.5584673601        3.5476421190       29.5302050242
  C         7.6804118957        1.6366291727       19.6438530421
  C        10.3304351485        1.6953946438       20.4894236404
  C         9.6309659912        4.1971310147       18.1813637587
  C         9.7687181628        5.5923902071       18.1141814315
  H         2.0936511522        4.4000467943       25.7889539240
  H         3.3490163778        4.3960572529       26.7675489975
  C         1.5081128290        4.9228681250       27.8638103868
  S         6.0094048554       -2.1223539270       28.3051716810
  N         5.6490794840       -1.6453670173       29.8021664482
  C         5.4062711103        0.4481178702       31.0487615786
  H         5.0203276080        2.5168077172       31.8028893408
  H         7.4212007229        0.8173374695       20.2539425389
  H         8.0014669012        1.1517944571       18.7373299539
  C         6.4483312845        2.5486344338       19.4655937162
  H        10.7871289782        1.3570413438       19.5662916531
  H        10.0945907539        0.8134262125       21.1443581261
  C        11.4417142966        2.4571831664       21.2139852646
  H         9.8734667381        3.4756275999       17.3830274060
  C        10.1803004611        6.3794193705       16.8880478674
  H         1.0678235208        3.9085929556       28.0200951594
  H         0.6090403365        5.5830356933       27.8650066097
  C         2.3178977495        5.3627288028       29.1630143427
  C         5.1931658452       -0.3410631308       32.3140557304
  H         6.7606396179        3.5979850638       19.0548855106
  H         6.1015650825        2.6729312789       20.5281545162
  C         5.4004569666        1.7975187139       18.6201743841
  H        11.0174458265        2.8357631023       22.1208970711
  H        11.6378163522        3.3323171452       20.6651521535
  C        12.7294213113        1.6267979752       21.5466780535
  C        10.3626806464        7.8569966118       16.8370848940
  C        10.5160611671        5.7320904142       15.5610259818
  H         3.2735758363        4.8207988068       29.1673399886
  H         2.5000941577        6.4340064045       28.9646271623
  C         1.4529074263        5.1394376150       30.5234137381
  H         5.4265535958       -1.3804678172       32.3130545500
  C         4.8380120525        0.0415423605       33.5887726541
  H         5.0534244751        0.8886825566       19.1870455807
  H         5.7441779199        1.2601045565       17.7295876946
  C         4.1353159896        2.6099183619       18.3110448598
  H        12.3783653649        0.8966698720       22.1947773457
  H        13.0204252299        1.1202009052       20.6443839309
  C        13.9122864110        2.4081554082       22.1488757694
  N         9.8522388881        8.7454133549       17.7945320285
  C        10.7050584465        8.5710206836       15.6803744120
  C        11.0103661412        6.4422650942       14.4189192971
  H        10.5342753695        4.6541945757       15.5637276924
  H         1.9264069353        5.1285260914       31.5139604137
  H         0.7484691062        5.9942159264       30.5208532799
  H         0.7574565820        4.2924454005       30.3398187450
  S         4.4487209898        1.6550907271       34.0814547107
  C         4.7960413142       -0.9929520991       34.6792143613
  H         3.9227860906        3.3053943435       19.1362616674
  H         4.2606124486        3.2359735258       17.4773377576
  C         2.8564090032        1.7865102182       18.2525316293
  H        13.4014591350        3.1458904273       22.7898827490
  H        14.3671211579        3.0163722313       21.3497709974
  C        14.8502444976        1.4245030929       22.8630816383
  S         9.9876242466       10.3062154293       17.3041177823
  N        10.6221524258        9.9917787746       15.8269264659
  C        11.0428167719        7.9449047934       14.4389272844
  H        11.3079807984        5.8213369560       13.6035552366
  C         4.2793196066        0.9682223253       35.6656549415
  N         4.5056856166       -0.3572281921       35.8135437217
  O         5.0404589989       -2.1665914466       34.5005417819
  H         2.0259663911        2.4371301242       18.0301965359
  H         2.5021227091        1.4051068010       19.2557915889
  C         2.8684124724        0.5818367701       17.3482559945
  H        14.3896449608        1.0027449622       23.7215336064
  H        15.1805908356        0.5883342021       22.2401625084
  C        16.1562785081        2.1049635613       23.3257907603
  C        11.2683476248        8.7560525920       13.2274784357
  S         4.0767455438        1.9195092940       37.1127947742
  C         4.6671210408       -1.0849734996       37.1217008405
  H         2.5823544430        0.9557768728       16.3610334662
  H         3.8110147384        0.0291407829       17.2543138497
  C         2.0681792293       -0.5542863030       18.0394293890
  H        16.2448827602        2.0499258495       24.4498111237
  H        16.0453216060        3.1062718785       22.9910770213
  C        17.3975618418        1.4987561791       22.6104693524
  H        11.0325054694        9.7847322844       13.3540761336
  C        11.6931868349        8.4294683195       11.9335340671
  H         3.8390344052       -0.7726869841       37.7148973238
  H         4.5964529947       -2.1061344360       37.0553681333
  C         6.0442002040       -0.9614681378       37.7318023738
  H         0.9934316159       -0.3456587590       18.2299274074
  H         2.5059775529       -0.7049492990       18.9971648321
  C         2.2583130271       -1.9211509953       17.3277458769
  H        17.4360209015        0.4996736284       22.8115838399
  H        17.3595728528        1.6245029531       21.5620264679
  C        18.6413513106        2.2048300053       23.1834213482
  S        12.2118226521        6.9632125947       11.3636747544
  C        11.6742683151        9.4543805925       10.8625421375
  H         5.8836616738       -1.2568982140       38.7743733612
  H         6.8686263719       -1.4618549436       37.1979720439
  H         6.5204723033       -0.0081722540       37.7450989231
  H         3.2528595199       -2.2512241907       17.3985837550
  H         2.0237072556       -1.7549770834       16.3035429204
  H         1.6088000015       -2.6740806616       17.8609610115
  H        18.4286678297        2.3653691719       24.3078627030
  H        18.9536888509        3.0631696962       22.5931829710
  H        19.4810647197        1.4995875602       23.1000507382
  C        12.5441214455        7.7546701685        9.8144344382
  N        12.2592366834        9.0740572102        9.7643768901
  O        11.2807780030       10.5822405860       11.1424859596
  S        13.2526150098        7.0059336251        8.4368210578
  C        12.2003745656        9.9510104189        8.6598802512
  H        12.1165926704       11.0069026122        8.9228781090
  H        13.1860361738        9.8336484657        8.1399976314
  C        10.9708552523        9.5888910487        7.7484765216
  H        11.0287972598       10.2620978656        6.8781485112
  H        11.0363567016        8.6060955701        7.2986401050
  H        10.0152087384        9.7645860130        8.2191822241
  H         4.7635078532        1.1620464215       12.5581276083
  C         4.6539322511        2.2539442353       12.6462654364
  H         5.4994370256        2.8831824176       12.4759578750
  C         3.6499831156        2.7240280776       11.5467770176
  C         4.1769810744        2.5987379113       14.0017894782
  C         4.1553685795        2.7907052498       10.1501588650
  H         3.2679570492        3.7437606472       11.7323157127
  H         2.8175920430        1.9885218831       11.3593294970
  H         3.8825709876        1.6497340908       14.4289073655
  H         3.2772641946        3.2970257061       13.9278515288
  H         4.9773426713        3.1493441651       14.6182060090
  C         4.7285285335        1.4699126302        9.6185524511
  H         3.2667405176        3.1256318180        9.4525778121
  H         4.8321454772        3.6028986831       10.1085638275
  C         5.4377845616        1.7530842812        8.1838805738
  H         3.8445112346        0.7555291012        9.6343890157
  H         5.5685753881        1.1426525581       10.2445191131
  C         6.6184606897        2.7145531446        8.1960390916
  H         4.6970449744        2.0260789030        7.4777971818
  H         5.8026993330        0.8271882673        7.7903863655
  C         7.9050545922        2.1078207069        8.8000311532
  H         6.8246870657        2.9959948960        7.1434587270
  H         6.4361897355        3.6559320116        8.7340242320
  C         9.1075708665        2.9350550904        9.0520301381
  H         8.2386232181        1.2803372426        8.2166023679
  H         7.6289488346        1.6339076203        9.7731820274
  C         8.8182223261        4.3134251753        9.6238509851
  C         9.6392765767        3.6511520965        7.7309207318
  C        10.3058990002        2.3495980200        9.8555835391
  C         9.1028533948        5.4321410665        8.8115240013
  C         8.4141876856        4.8097831804       10.9169047162
  C         9.5473885007        4.9742905858        7.6328141879
  C        10.1084921978        3.0511784539        6.5533649923
  H         9.8613561671        2.2406550302       10.7908465479
  H        10.5407292200        1.4026936123        9.4196990922
  C        11.6255610871        3.0668146031        9.9766312322
  S         8.8977006704        6.9503061465        9.5514327613
  C         8.3691307476        6.1930168689       10.9616118391
  H         8.2495370655        4.0872368039       11.6681978987
  C         9.9394220044        5.6486166129        6.5006212563
  H        10.2419274299        2.0179069227        6.6496220287
  C        10.3864047687        3.6922897949        5.3895218953
  H        11.4794930052        4.1726101673       10.0807023121
  H        12.1624345742        2.9179691808        9.0535556528
  C        12.4674729014        2.3645349282       11.0188281486
  C         7.9819148053        6.8336782733       12.2273515583
  C        10.2848133702        5.0215705288        5.2685808297
  H         9.9304763636        6.7428440513        6.6066951836
  C        10.7305818424        3.2887342906        4.0952640202
  H        13.3784672083        2.9839313522       10.9159885377
  H        12.8398295187        1.4176987128       10.6755005071
  C        11.8296115819        2.3572080489       12.4521256941
  C         7.9737115095        8.2173087316       12.4599197555
  C         7.4514116326        5.9577432251       13.3343535676
  C        10.6881313204        5.6467740277        3.9632988161
  C        10.9078738628        4.3233060515        3.2340210105
  S        11.1060101704        1.7952603872        3.4142872504
  H        11.4702554601        3.3847384339       12.7093701989
  H        11.0078277598        1.6409554227       12.6178894048
  C        12.9290196606        2.0037649217       13.4887254510
  N         8.1906816587        9.2352042108       11.5631289134
  C         7.7127041025        8.7298890904       13.7196926277
  C         7.1777142547        6.5412441773       14.5184995527
  H         7.3223524245        4.8903774520       13.3966152503
  C        12.0290358881        6.4012579067        4.0307963636
  C         9.4530392448        6.3341437359        3.3918901685
  C        11.3947379194        3.8994336881        1.9972327550
  C        11.3121503245        2.5524951479        1.8735497461
  H        13.8314627720        2.3964068805       13.0031779457
  H        13.0908426980        0.9297796020       13.4256005735
  C        12.6072695083        2.5751663683       14.8385003858
  S         8.0487919404       10.6064510954       12.2692528442
  N         7.7362527463       10.0944298459       13.8169951334
  C         7.3707622399        7.9400639965       14.7971154348
  H         6.7263812919        5.9137154572       15.2443096266
  H        11.9950001133        7.2964251277        4.6483288467
  H        12.3105985708        6.7719287367        3.0510673537
  C        13.2519372624        5.5678880660        4.5614459813
  H         8.9438281512        6.8619936279        4.1331339495
  H         9.7133074393        7.0714289848        2.6815486914
  C         8.3249822118        5.4539504842        2.7567469665
  H        11.6157489590        4.6052611592        1.2344638207
  C        11.7500672775        1.7450012146        0.7035302044
  H        12.3903453672        3.6908787007       14.7624569039
  H        11.6737592586        2.1467620919       15.3322109982
  C        13.6914654675        2.2956021148       15.7531099588
  C         6.9665495480        8.6472857144       16.0169568400
  H        13.0051568016        5.0515745206        5.5093058079
  H        13.5079979211        4.7589817092        3.8186615616
  C        14.4918298014        6.4094862953        4.9009487913
  H         7.6830357278        4.9615687550        3.5704747897
  H         8.7058961233        4.6015073674        2.1549699478
  C         7.3967408007        6.1419186544        1.8104011819
  C        11.7922597593        0.3372514801        0.5988131306
  C        12.2545807545        2.4775728097       -0.4805258476
  H        14.5051499755        3.0110433276       15.5552209404
  H        14.0683950425        1.2735611963       15.7319673036
  C        13.2284296260        2.7197410000       17.2235913061
  H         7.0723886568        9.7122925307       15.9507704054
  C         6.7669450256        8.1774055946       17.2845402965
  H        14.0666674674        7.1632272973        5.5609218266
  H        14.9160227980        6.9197350330        4.0527700661
  C        15.4199634765        5.5642210231        5.7862579004
  H         7.4878546360        7.1955661583        1.9258284541
  H         7.7001985416        5.8956654631        0.7683193923
  C         5.8917993978        5.8147347723        2.0722651418
  N        11.4452894478       -0.5753470418        1.6102479221
  C        12.2384890980       -0.3370089210       -0.5728678233
  C        12.6496384088        1.7968160302       -1.6370868667
  H        12.2963754237        3.5482925107       -0.3888188143
  H        12.8567403190        1.8776473857       17.8562270881
  H        12.5427179734        3.4463279614       17.2162213474
  H        14.1412266986        3.1974832029       17.6791255889
  S         6.6525768644        6.6223335644       17.8118594969
  C         6.4637687832        9.1805479691       18.3651446626
  H        14.8712450457        5.3711072262        6.7702622794
  H        15.6439724496        4.6085750049        5.2626012375
  C        16.7019454406        6.4416660939        6.0325670583
  H         5.7546005722        5.7167222688        3.1376300404
  H         5.5034670193        4.8981073449        1.7359022027
  C         4.9843508880        6.9092474870        1.3830040920
  S        11.6551644091       -2.0895330383        1.1410209424
  N        12.1949590623       -1.7199260407       -0.3297678422
  C        12.6964956349        0.3050677101       -1.7502247482
  H        12.7913274692        2.3630259272       -2.5459093064
  C         6.2794935747        7.1957395625       19.3740011614
  N         6.2096212578        8.5348630692       19.5055279840
  O         6.3286195725       10.3850185607       18.1041932595
  H        17.1202638958        6.6007558935        5.0698270663
  H        16.5123809113        7.3777939900        6.4544808837
  C        17.6729681155        5.6464558582        6.9580766027
  H         5.5151987386        7.2672945509        0.4841706195
  H         4.0985704312        6.4053888459        0.9700334807
  C         4.6963096300        8.0157939974        2.3666392530
  C        12.8619852989       -0.4635656088       -2.9544911770
  S         5.7033614692        6.2276991280       20.7488663816
  C         6.0672650980        9.2941912360       20.7717687401
  H        17.2036264366        5.6697528184        7.9405707385
  H        17.6058274508        4.6328705207        6.6359886025
  C        19.2033587156        5.9922740292        6.9541091571
  H         5.5751551959        8.1026541372        2.9755035273
  H         3.8913783135        7.5648927625        3.0060686933
  C         4.2354303390        9.3708672074        1.8552861319
  H        12.4151803460       -1.4452824310       -2.9337248996
  C        13.4438869768       -0.2053397389       -4.1693531490
  H         5.3753439765        8.7942236792       21.4460740120
  H         5.5439244772       10.2375206421       20.6085904755
  C         7.3409038607        9.8054275070       21.2485474335
  H        19.6530787104        5.5654602515        7.8873223871
  H        19.2944111760        7.0153510901        7.1392889248
  C        20.0495208547        5.7126598234        5.7387807458
  H         3.7960216555        9.9184262943        2.7020016317
  H         5.0386039379        9.9493041215        1.5512032947
  C         3.1880135919        9.2954856848        0.7276106732
  S        14.1667780019        1.3351351653       -4.6038320352
  C        13.4441814047       -1.2330113556       -5.2653493763
  H         8.0134948130        8.9884461225       21.1225241272
  H         7.2776890601       10.0809082531       22.3004402455
  H         7.6752324719       10.6604987620       20.6836522614
  H        20.4777572754        4.7540394687        5.8169502734
  H        19.4453727555        5.7871912108        4.7825566479
  H        20.8752803946        6.5149550398        5.7847699418
  H         2.3088101096        8.7836965892        1.1100946946
  H         2.8894919659       10.2908625051        0.4988134281
  H         3.3855382139        8.8308294571       -0.2331323416
  C        14.4359335178        0.5998623569       -6.2246934915
  N        14.0157358372       -0.7017061067       -6.3692388159
  O        12.8581033360       -2.3475811482       -5.1933733336
  S        15.1205697098        1.4608553729       -7.5750472710
  C        14.2084913455       -1.3991762870       -7.6459662012
  H        14.3228657398       -2.4665710391       -7.5061974533
  H        15.1732253416       -1.1809145899       -8.1921113696
  C        12.9563395664       -1.1947867495       -8.4902354750
  H        13.3368113392       -0.5475613896       -9.3056374047
  H        12.1109885811       -0.5697156267       -8.0353671430
  H        12.6419245952       -2.1380069720       -8.8732607589
