352
 i =    85800, time =    42900.000, E =        98.4656381883
  H        12.4539069014        5.8980463743       32.7951710782
  C        11.5332176296        5.2711779548       32.8590963295
  H        11.8883618590        4.1906254309       32.6716865240
  C        10.5668847913        5.7362822213       31.7682756889
  C        10.9020050750        5.3270392840       34.1910923377
  C        11.1727945428        5.7819737089       30.3459646855
  H         9.6366273766        5.2416820966       31.6581781519
  H        10.1771073406        6.6798776147       32.0951971790
  H         9.8469828225        5.7373779687       34.0559683482
  H        10.7949615679        4.3086663198       34.5073120892
  H        11.5013662611        5.8716391266       34.9017789030
  C        10.3751848320        4.9843818936       29.2981809711
  H        12.1730980364        5.3119061602       30.3940090418
  H        11.3474121814        6.7923543707       30.0282218438
  C        10.8045866126        5.3152832717       27.9102372348
  H        10.5142888448        3.9378661659       29.3443195771
  H         9.3161741887        5.0985302582       29.4634967380
  C         9.7738476891        4.7455974136       26.8938368588
  H        11.7133835099        4.5874482027       27.9199516980
  H        11.1352978475        6.3731444321       27.8153705340
  C         8.6012752633        5.7229421263       26.5604321648
  H        10.2932761900        4.5068190194       25.9361709554
  H         9.2872363680        3.7927330292       27.2606948990
  C         7.4079677975        5.0853536870       25.7084954762
  H         8.3283846804        6.1672588912       27.4861043605
  H         9.0932854126        6.5031458897       25.9215931750
  C         6.9414579018        3.7480700622       26.3783916714
  C         7.8592260513        4.3519353602       24.4454068149
  C         6.1671924778        5.9952596382       25.6389614111
  C         7.2830200846        2.6027093128       25.6435671499
  C         6.3725691302        3.4120907547       27.6434924200
  C         7.8440144188        2.9807163231       24.4028674838
  C         8.1606003240        4.9713178329       23.2524929542
  H         6.5068772594        6.9354017059       25.3522080632
  H         5.8048081592        6.0356568772       26.6734798758
  C         4.9573734264        5.4517217635       24.7613898738
  S         6.8519855535        1.1236152560       26.4434976669
  C         6.3217710086        2.0545045489       27.7722302014
  H         6.1364626567        4.1771675153       28.3989979083
  C         8.1892588667        2.3215841832       23.2641315040
  H         8.1501435636        6.0963515893       23.1552436944
  C         8.3979021052        4.3126597866       22.0903094140
  H         5.3856014118        5.1560240744       23.7807857944
  H         4.7442036882        4.4703426655       25.1224628287
  C         3.8260583921        6.5224328242       24.6129811516
  C         5.8841217128        1.2559548298       28.9778596078
  C         8.4372923860        2.9640053344       22.0283312448
  H         8.2019835835        1.2492641835       23.1781368648
  C         8.8886483369        4.7034085267       20.8743475683
  H         3.1789373845        6.1515686207       23.8058873901
  H         4.2569143468        7.4838987790       24.2709849638
  C         3.0588925961        6.7458276099       25.9132215136
  C         6.0485960638       -0.0989145072       29.2723026696
  C         5.3787585609        2.1501590958       30.1529128041
  C         8.9280402543        2.2151748552       20.8124789902
  C         9.1759889896        3.6084667782       20.0954855556
  S         9.1823471220        6.1828509048       20.2014524447
  H         2.5318710590        7.6336900516       25.8376409282
  H         3.8238576784        6.9754483743       26.6669039284
  C         2.1423575983        5.6143264476       26.3347126486
  N         6.3663964611       -1.0872005067       28.3553480942
  C         5.7562169266       -0.6613917540       30.5160505480
  C         5.2094480240        1.5590076009       31.4059699366
  H         5.0900749295        3.2038799753       29.8946010939
  C         7.7996840700        1.3700116950       20.0756042886
  C        10.2334635110        1.4226280859       21.0790464278
  C         9.6495171120        4.0377040922       18.8466471683
  C         9.6315423122        5.4110780612       18.7914832102
  H         1.3437739843        5.4826461207       25.6277447101
  H         2.8400334615        4.7180872931       26.1634492751
  C         1.6088780624        5.5311668676       27.7918067936
  S         6.3801122743       -2.4789991019       29.1525285363
  N         5.7431697648       -2.0389444938       30.5199181271
  C         5.4043244982        0.1022493190       31.6067472584
  H         4.6684319753        2.2352238083       32.0495657856
  H         7.6330764795        0.4895645657       20.6642346744
  H         8.1454653366        0.8863038782       19.1699124097
  C         6.4486291486        1.9089093550       19.8518490703
  H        10.4271953597        0.8044986972       20.1809543921
  H        10.1388819478        0.6751352539       21.8683308437
  C        11.4411464905        2.2123883056       21.4112283208
  H        10.0042635688        3.2679839343       18.1986607209
  C         9.9028285208        6.1561603757       17.5494419588
  H         1.0159285431        4.7168463354       28.0651044293
  H         1.0906261151        6.4660258507       27.9278279006
  C         2.7476023075        5.3825054087       28.8714448453
  C         5.1510029149       -0.5373103514       32.8060607371
  H         6.0598171005        2.4801957467       20.7453385979
  H         5.6334945023        1.1359187075       19.7957292443
  C         6.3009487052        2.7082795832       18.5606093100
  H        11.2579516369        2.7612440321       22.2746096230
  H        11.7169256821        2.9153706723       20.6829487918
  C        12.7598511078        1.3479900711       21.5080330932
  C         9.9768125326        7.5457461927       17.4151911679
  C        10.2925015316        5.4127614712       16.3312643667
  H         3.3054184892        4.4700224254       28.6078932417
  H         3.3622144462        6.2422117365       28.7718948331
  C         2.1067086005        5.3852343321       30.2821540756
  H         5.3046413165       -1.6547265690       32.8107899345
  C         4.9122033539        0.0248678254       34.0971314652
  H         7.0584654323        2.4646715168       17.8008595186
  H         6.6124099099        3.7239123381       18.7969677161
  C         4.8399365301        2.8580985456       18.0289916347
  H        12.6387325308        0.6602942775       22.2834139900
  H        13.1299052632        0.9416894904       20.5055056978
  C        13.8358948338        2.3902986413       21.7802934070
  N         9.8160600197        8.4897352300       18.4300333998
  C        10.1656350212        8.1383321032       16.1826384763
  C        10.6129429603        6.0142196360       15.0864019548
  H        10.4033988542        4.3841336826       16.4932795866
  H         1.0890621625        5.0374058789       30.3070646786
  H         2.8129221786        5.0904215077       31.1173841681
  H         2.0430376767        6.4071292508       30.5728894718
  S         4.7063314514        1.6331375820       34.6449869571
  C         4.7067986828       -0.9996967764       35.2121404054
  H         4.1539789073        3.2459939822       18.8133598481
  H         4.7741691500        3.5167423580       17.2102041293
  C         4.3269841001        1.5692363529       17.4664871619
  H        13.5464745504        3.1035760279       22.5207984531
  H        14.0312492797        2.9247896738       20.9105081187
  C        15.1424705863        1.6837498851       22.1502891885
  S         9.6626444865        9.9370456700       17.7063990529
  N        10.1372831628        9.5131733440       16.1913168010
  C        10.5177860177        7.4812826699       14.9621917676
  H        11.0630666537        5.3882772543       14.3806342414
  C         4.4966317795        1.0207766363       36.2537526800
  N         4.3896820642       -0.3509646304       36.3247011238
  O         4.8194054928       -2.2200748357       35.0793255529
  H         4.9815546875        0.7554473494       17.8094851833
  H         4.2472871263        1.6303959713       16.4042314714
  C         2.9298600161        1.1142296889       17.9835465873
  H        15.0198448755        1.0731671481       22.9814280706
  H        15.4311056593        0.9765447356       21.3074817397
  C        16.2947811635        2.7049243636       22.1892104704
  C        10.7073956120        8.3196637367       13.8369089801
  S         4.1414463546        1.8422337646       37.6973989610
  C         4.3183954030       -1.1435443902       37.6055529985
  H         2.6637680629        1.7885717975       18.8472416162
  H         2.2513610666        1.4038813570       17.1927868858
  C         2.9731646376       -0.3817036298       18.3358349542
  H        16.0331185008        3.6141327091       22.7554792821
  H        16.4876312765        3.1346042411       21.2232558134
  C        17.5861557519        2.2032176951       22.8467370332
  H        10.5640102305        9.3907972245       13.9479474439
  C        11.0488772289        7.9780860423       12.5845797477
  H         3.6287197290       -0.6817499365       38.3819539722
  H         3.8549806474       -2.1399848879       37.4719380375
  C         5.7418804193       -1.3342692120       38.1973200133
  H         2.1189147949       -0.6479132510       18.9414925854
  H         3.8490214973       -0.5865598132       19.0330551240
  C         2.9213341905       -1.2451170836       17.1683867185
  H        17.8121096402        1.2004142102       22.5209383850
  H        18.4213351852        2.8026670200       22.4633908328
  C        17.4279575327        1.9687396850       24.3009950272
  S        11.3183675314        6.3789911241       11.9939793678
  C        11.1878644226        9.0704111935       11.5621715019
  H         6.4499525868       -1.5490901827       37.4634805676
  H         6.0374060407       -0.4240167711       38.7493769332
  H         5.7316192197       -2.2536770265       38.7911387886
  H         3.8363733623       -1.3119314159       16.6163548377
  H         2.1282736164       -0.8751905706       16.5093098895
  H         2.7028815584       -2.2297911807       17.5250540433
  H        17.0412828387        2.8785950881       24.8020597552
  H        18.3947930803        1.8226537199       24.7846719555
  H        16.8188627287        1.1156777113       24.5356222914
  C        12.1146891770        7.2289336643       10.5867918099
  N        11.8923193674        8.5466005078       10.5062158743
  O        10.8413249033       10.2246504877       11.6787756767
  S        12.5918300161        6.3477760957        9.1061329024
  C        12.2052537401        9.3737614438        9.3254216852
  H        12.4972101110       10.3686020874        9.5405932877
  H        13.0871411699        9.0428812604        8.7900285978
  C        10.9200754217        9.4682387106        8.4724647094
  H        10.1055152735        9.0556791866        9.0040574776
  H        10.5706046655       10.4788538615        8.1492506336
  H        11.0387539462        8.9080768057        7.5665533171
  H         3.9131309700        1.1245703527       12.5070977707
  C         3.6073698041        2.1739820928       12.4900208996
  H         4.5501967704        2.6801335977       12.3640703402
  C         2.6385450363        2.3361022787       11.3304466905
  C         2.8870551724        2.5640072834       13.7417150708
  C         3.4663671016        2.5447861664       10.0209343440
  H         1.8612059647        3.1615984192       11.4438077938
  H         2.0081031648        1.4700582903       11.3119241750
  H         2.4937738262        1.6609811020       14.1855519560
  H         2.1188173902        3.2686049799       13.3833606562
  H         3.5508733449        2.9926099079       14.5115387187
  C         4.1829443621        1.2599969385        9.5349636232
  H         2.7588209813        2.8587983341        9.2497825841
  H         4.1545660916        3.3792311931       10.1756177007
  C         5.0526894828        1.4465987989        8.3095833792
  H         3.3781214507        0.5647705041        9.2756967415
  H         4.7839603630        0.7331398268       10.2974665951
  C         6.3316114319        2.2779955963        8.5555319652
  H         4.6120744402        1.6061315369        7.3475463499
  H         5.3125566685        0.4468369002        8.1932028849
  C         7.7014215245        1.6220694875        8.9987643569
  H         6.3869855204        2.9455863377        7.7862803396
  H         6.0297571575        2.8783769093        9.3353811776
  C         8.9233808113        2.5988007934        9.2529461641
  H         8.0930862679        0.8845924270        8.3010696147
  H         7.5986685671        0.9734323712        9.9136007316
  C         8.4200357879        3.9205186437        9.9042246933
  C         9.3797409405        3.2781205109        7.9946114095
  C        10.1639989071        1.9659303543       10.0360811648
  C         8.7257862715        5.0216023440        9.0676716684
  C         7.8840453736        4.2487167739       11.1655262954
  C         9.2451884479        4.6404617490        7.8628377179
  C         9.9309521626        2.6816131833        6.8903567312
  H         9.8359426363        1.3841802903       10.9425212575
  H        10.6253322808        1.2896223522        9.3274082772
  C        11.2341084429        2.9814978103       10.4996223265
  S         8.2027685961        6.5060375165        9.8533748459
  C         7.7995327659        5.5769231592       11.3317019443
  H         7.7483963242        3.4673245470       11.8625965055
  C         9.6831335363        5.2954610180        6.7235535466
  H         9.9532185527        1.6090371799        7.0137989117
  C        10.3030021599        3.2947331218        5.6864462973
  H        10.8256414104        3.8133721822       11.1444421015
  H        11.3099896668        3.6372984417        9.6198792387
  C        12.5547304298        2.3563464281       11.0637679735
  C         7.4741863093        6.2693871907       12.6377181774
  C        10.2757465566        4.6551835688        5.5960407603
  H         9.4876970693        6.3173295151        6.6210053031
  C        10.7975568355        2.8563750911        4.5135174903
  H        13.1739034747        3.2472884518       11.2142740957
  H        13.1225982102        1.6249406587       10.4396490099
  C        12.3980947873        1.7883205365       12.3987299289
  C         7.5042646742        7.6424966907       12.8589453370
  C         7.1853809347        5.4491914342       13.8198387474
  C        10.7862878357        5.2736530012        4.3475078081
  C        11.0897847554        3.8804466747        3.6741266718
  S        11.0192677275        1.2794471388        3.7945701758
  H        11.6281826570        1.0188201893       12.3629166147
  H        13.3136681556        1.3087338876       12.7782687603
  C        12.0842747830        2.8555498899       13.4193606236
  N         7.7247252644        8.5535715064       11.8583139385
  C         7.2651857716        8.2473596174       14.0389139479
  C         7.0364114389        6.0318586356       15.1099667695
  H         7.3299720998        4.3705973937       13.8061582521
  C        12.0956343100        5.9883325236        4.6340620581
  C         9.7021531685        6.1249145177        3.7095435909
  C        11.5062033865        3.4456160433        2.4329687008
  C        11.5263045473        2.1017491540        2.3618495404
  H        11.1286330206        3.3966333858       13.2284437043
  H        12.8582549764        3.5604524140       13.5992362945
  C        11.5752519949        2.2272239006       14.6880115087
  S         7.6657583358       10.0847051258       12.4397596910
  N         7.3078718622        9.6011031216       13.9279317883
  C         7.0044628386        7.5431369164       15.2788856576
  H         6.8082111089        5.3243399723       15.8856560449
  H        11.7717925485        6.7169863211        5.4597740475
  H        12.3334852846        6.6782282486        3.7971223442
  C        13.3072837151        5.1986850375        5.2186145569
  H         9.4763751220        6.8841489439        4.3692485827
  H        10.1093309252        6.6938486064        2.8583433953
  C         8.4349217909        5.3718960199        3.3126260455
  H        11.6343024367        4.1768991258        1.6728476619
  C        11.8246372753        1.3907974364        1.1168471646
  H        10.6172339217        2.6703263284       14.9434537093
  H        11.3455149985        1.1749656413       14.4416700346
  C        12.4457579179        2.3280444623       15.9258214955
  C         6.7387421260        8.2631847664       16.4755924042
  H        12.9989415381        4.6030815016        6.0940930857
  H        13.6400112177        4.4605758724        4.4527849425
  C        14.4055116616        6.1504072171        5.6228725684
  H         8.0466566979        4.7277382859        4.1207449489
  H         8.8387519474        4.7011812117        2.5013417889
  C         7.3142068364        6.3000080991        2.9728558570
  C        11.8460118020       -0.0352541666        0.9259464980
  C        12.0729054578        2.1761805487       -0.1111245786
  H        12.3379006643        3.3599034621       16.3148228839
  H        13.4540283285        2.0907141536       15.7386319737
  C        11.9206296891        1.2636347349       16.8707971607
  H         6.5784041731        9.2644043967       16.2311146157
  C         6.3854346023        7.9684361915       17.7898667901
  H        14.0136551835        6.6727762525        6.4954188948
  H        14.7303667938        6.8458042582        4.7973452461
  C        15.5787579703        5.4879044480        6.2565718183
  H         6.8090366363        6.5269383382        3.8665314908
  H         7.6598338751        7.2360136712        2.5456504075
  C         6.3554403206        5.6046356212        2.0626485047
  N        11.6315108350       -0.9688005159        1.9487910286
  C        12.0843523410       -0.6710881746       -0.2901156575
  C        12.2835376024        1.5746707220       -1.3084904355
  H        11.7622421928        3.1774334180       -0.1961186134
  H        11.9725105141        0.3359561552       16.3075815827
  H        10.9286142353        1.4450990515       17.1233395413
  H        12.5022467153        1.1938203766       17.6866713278
  S         6.2134238573        6.3352718981       18.3334517763
  C         6.3262761032        9.0641926391       18.7739358637
  H        15.8008071168        5.5593191473        7.2824969702
  H        15.5327418714        4.4006240695        5.9994722241
  C        16.8132623473        5.9442606352        5.5975045499
  H         6.6374717232        4.5916512001        1.8585371381
  H         6.3125295468        6.0471333499        1.0598607742
  C         4.9265413260        5.6074797116        2.5474620901
  S        11.7396624005       -2.4849772734        1.3656629801
  N        12.1736917151       -2.0623516286       -0.1873241257
  C        12.4723839438        0.1070466019       -1.4422068544
  H        12.3856065743        2.2074820693       -2.2094402187
  C         5.8697529099        7.1404428154       19.8790648195
  N         5.9193140786        8.5244726466       19.9208694880
  O         6.5729344640       10.2296936371       18.5350444195
  H        16.7771852073        5.7151130724        4.5413544913
  H        17.0314538187        6.9197649912        5.8413632479
  C        17.8907776731        5.0795049469        6.2931546048
  H         4.3050923368        5.1640007915        1.7223937651
  H         4.8841936272        4.8776555518        3.2762766981
  C         4.2126721720        6.9042411250        2.8939112463
  C        12.9142841270       -0.6455613910       -2.5897945622
  S         5.5298417988        6.3011588901       21.3582580046
  C         5.9231500526        9.4081580856       21.1548261371
  H        17.7349649964        5.1600706107        7.4201550579
  H        17.7245574425        4.0275249472        6.0668179349
  C        19.3300621377        5.5402281053        6.0382452014
  H         4.4755015556        7.3295827481        3.8463680225
  H         3.1794508116        6.7474692780        3.0146654748
  C         4.3318248207        8.0080897333        1.7650444910
  H        12.9040720236       -1.6807262003       -2.4338283187
  C        13.2248299428       -0.2249300643       -3.8562421027
  H         5.3802140182        9.0400239941       22.0237543794
  H         5.6315036171       10.4319099798       20.9406547529
  C         7.2945120041        9.6128440419       21.7244831255
  H        19.9878720120        4.7451282928        6.2897784711
  H        19.5318403916        6.5064051513        6.5774429741
  C        19.4676642861        5.7964953870        4.5201086005
  H         5.3716859833        8.3492770370        1.8336277146
  H         4.1853066714        7.7326681304        0.6997415538
  C         3.3987285783        9.2427722999        2.0348794810
  S        13.6418904024        1.3980121502       -4.2910079763
  C        13.2224077091       -1.2690171938       -4.9972653672
  H         7.5023061863       10.5985878505       22.0223801941
  H         8.2030667911        9.5121629727       21.0078183341
  H         7.5561874107        8.8942933981       22.5722399988
  H        19.2881183091        6.8476311574        4.3216089843
  H        20.4186716333        5.4539221146        4.1889637494
  H        18.7395538840        5.1583221442        4.0153252230
  H         4.1155857210       10.0798346943        2.1530741727
  H         2.7610865583        9.3659866955        1.1699084738
  H         2.8435908090        9.0615946074        2.9748895312
  C        13.8739959844        0.6508786897       -5.9216088834
  N        13.7070905486       -0.7022367791       -6.0593536627
  O        12.9315045652       -2.4743321830       -4.7999124917
  S        14.5747263572        1.5495714905       -7.3474086600
  C        13.8548490043       -1.4709448885       -7.2681250288
  H        13.9926284391       -2.5866941011       -7.0838812664
  H        14.8597096234       -1.0690265552       -7.5803462949
  C        12.7155787909       -1.2793613638       -8.3153345831
  H        11.8518081865       -1.5101014744       -7.8028211804
  H        12.7452312372       -1.9603185954       -9.1901140427
  H        12.7554445139       -0.2993834731       -8.7439256630
