352
 i =    97900, time =    48950.000, E =        98.7594240708
  H        12.0500973627        5.0486904229       32.0711539537
  C        11.0196163148        5.0459457600       32.2133172868
  H        10.7014279267        4.1470508401       31.7215444235
  C        10.3809044057        6.2492818913       31.4742346416
  C        10.7035659430        5.1027240216       33.6930531682
  C        10.8686197534        6.4026777627       30.0105419147
  H         9.3082945222        6.2034243396       31.6098191266
  H        10.6100084635        7.1492026829       31.9673603112
  H        10.9159862535        4.1172709192       34.1836915125
  H        11.3670661964        5.7720128382       34.2390025334
  H         9.7312129997        5.4880716963       33.9406403786
  C        10.4304938050        5.2881243823       29.1351696970
  H        11.9472076730        6.2449415297       30.1195983461
  H        10.6461409094        7.3285735630       29.4878083239
  C        10.7129148209        5.4642891952       27.6170590528
  H        10.7301209725        4.2262724791       29.3310907427
  H         9.3302761653        5.1993064693       29.2698242568
  C         9.6426741727        4.9813917917       26.6631176906
  H        11.6569415968        4.9499358314       27.3867411386
  H        10.8168240570        6.5491336531       27.4034901599
  C         8.4757902661        5.9436681510       26.3872103357
  H        10.1912776808        4.7958080877       25.7897681814
  H         9.3855880195        4.0081236120       26.8658485366
  C         7.3095858296        5.3326248946       25.6342359107
  H         8.2288197987        6.5495254509       27.3137951655
  H         8.9143667541        6.7471402253       25.7653250406
  C         6.9351778005        3.9910723304       26.2305252766
  C         7.7179667741        4.6791967806       24.3177009499
  C         6.1269043736        6.2826677539       25.4593770614
  C         7.2106463220        2.9191781324       25.4124626745
  C         6.4121140709        3.5585248976       27.4659322205
  C         7.6879238319        3.3530309962       24.1858839745
  C         8.1643101737        5.3014721779       23.1500001613
  H         6.3714467144        7.0685036881       24.7723892518
  H         5.8820294206        6.8274277807       26.3948369526
  C         4.8210511338        5.5986591579       24.9256446698
  S         6.8491293378        1.3062307530       26.0690089811
  C         6.3604223160        2.2175638240       27.6055070721
  H         6.2136337000        4.3056325152       28.1810380045
  C         8.0308078255        2.6981185759       23.0110904072
  H         8.1967830883        6.4017577370       23.1619555883
  C         8.5527732511        4.6729898292       21.9551413072
  H         5.0428395811        5.4160832643       23.8891199213
  H         4.4467927746        4.6278762431       25.3532946511
  C         3.5275690155        6.5228279957       24.8990287614
  C         6.1780866105        1.5625344206       28.9150697239
  C         8.5112139309        3.2951619883       21.8204361391
  H         8.1354044882        1.6332097119       23.0271175313
  C         8.9979960228        4.9954072273       20.6725559763
  H         2.8225560171        6.1648693977       24.1708249098
  H         3.7338433671        7.5022245868       24.5042016582
  C         2.8701074951        6.7112460262       26.3626403072
  C         6.1982969096        0.2317716128       29.2084851774
  C         5.7768912116        2.4274873208       30.0634221027
  C         8.9535194111        2.5555425746       20.6379824814
  C         9.3021812361        3.8877644622       19.9188251806
  S         9.1271789218        6.4965535322       19.8871906747
  H         2.1342037982        7.5652798833       26.3668030777
  H         3.6125559882        6.8620725211       27.1657359860
  C         2.1656185499        5.4507830199       26.9324470695
  N         6.6357993626       -0.7665662320       28.3361563819
  C         5.9596172176       -0.2777791985       30.4887121296
  C         5.4238174033        1.9572229552       31.3350406602
  H         5.8447904211        3.4860774561       29.9921434338
  C         7.8566814085        1.8604166065       19.9103495081
  C        10.2079611598        1.6176863572       20.8654529486
  C         9.8512346177        4.2828993088       18.6934201188
  C         9.7680600448        5.6586863518       18.4507024809
  H         1.2531383959        5.2839817437       26.3597631738
  H         2.6783265755        4.5698148401       26.6414089583
  C         1.8186456147        5.5674219755       28.3779740729
  S         6.4248535033       -2.2041983230       29.0576213499
  N         6.2440127128       -1.6573025962       30.6055174147
  C         5.4446116578        0.4921320133       31.5573960490
  H         5.0401351913        2.5961759036       32.0975768942
  H         7.5172555226        0.9556321239       20.4419415458
  H         8.3845333061        1.3497817222       19.1249978424
  C         6.6779223310        2.7920312005       19.4525676098
  H        10.3084229205        0.9010927993       20.0247803903
  H        10.0613232372        1.0086042425       21.7365337792
  C        11.4761027500        2.5088119213       21.0509936955
  H        10.2453948678        3.5284192138       17.9916618056
  C        10.0377375166        6.3974225147       17.1347654536
  H         1.0854083931        4.7885514579       28.5897538161
  H         1.3846801876        6.5668606936       28.5617746379
  C         2.9278451333        5.2874427549       29.4032581232
  C         5.0441847096       -0.2144249963       32.7775329567
  H         7.0354942981        3.4132010986       18.6431885307
  H         6.3243579782        3.4315392486       20.2375297492
  C         5.4740543320        2.0007006032       18.8517736757
  H        11.2541515780        3.3233086087       21.7748481454
  H        11.6579634643        2.9934958656       20.0931197776
  C        12.7167750585        1.6408630754       21.3189638080
  C        10.0233781115        7.8279775339       16.9468897129
  C        10.4096960113        5.6026641604       15.9328483377
  H         3.3099876451        4.3222876394       29.4071783198
  H         3.7501494513        5.9929009062       29.3229219991
  C         2.5211874745        5.5864721470       30.8627607058
  H         5.2506100433       -1.2541172909       32.8646698568
  C         4.6019340964        0.2714504464       34.0200228422
  H         5.3142768508        1.1566443720       19.5447656064
  H         5.6801370686        1.6919175303       17.8307483700
  C         4.2655081987        2.9205663672       18.7836934884
  H        12.4664350763        0.9883846562       22.1663687603
  H        12.9605051854        0.9392371675       20.5191310520
  C        13.9753912361        2.5123078693       21.4920470209
  N         9.6204452216        8.7273583094       17.9315254550
  C        10.3506774575        8.4369258295       15.7366932239
  C        10.6544015430        6.1633545481       14.6900659092
  H        10.5907832100        4.5058851161       16.0540831932
  H         1.9334346755        6.4442441315       31.0162499648
  H         1.8892985452        4.7477756278       31.1688105862
  H         3.2367442247        5.5704665443       31.6319749714
  S         4.1937638739        1.8539101576       34.4138432685
  C         4.4467774564       -0.7531232328       35.0816957414
  H         3.8601326347        3.0903420511       19.8101936989
  H         4.5197966532        3.9370948886       18.5164810399
  C         3.1768167271        2.4277779249       17.7884547677
  H        13.7837608819        3.3983711040       22.0673069887
  H        14.3240329364        2.9265542450       20.5645022160
  C        15.1267772104        1.8340475657       22.2453043544
  S         9.8943126453       10.2337638037       17.2761432568
  N        10.3296550241        9.8389939988       15.7941538714
  C        10.6295328813        7.6613338028       14.5864084836
  H        10.9586240638        5.6353767252       13.8977163066
  C         3.8608112525        1.1475886546       36.0301227828
  N         4.1042076326       -0.1411041101       36.1922587928
  O         4.6630653727       -1.9572744188       35.0076963466
  H         3.5710954894        2.3238425691       16.8264595050
  H         2.4019953817        3.2183499503       17.8048456452
  C         2.5845647608        1.1356971445       18.2110657427
  H        14.8007974040        1.5814488391       23.2447615574
  H        15.3291538283        0.9593382321       21.6855171209
  C        16.4140409512        2.7230640358       22.1490832180
  C        10.8086747910        8.3847342939       13.3004096218
  S         3.6092182682        1.9987561154       37.5480815200
  C         4.0303827980       -0.9310191276       37.4787370128
  H         3.4339033588        0.4409648915       18.2260110013
  H         2.2157199788        1.3938469897       19.1744355311
  C         1.6437232994        0.4924439901       17.2426485824
  H        16.3080673952        3.7319907237       22.4694077132
  H        16.6087663297        3.0310824011       21.1277178369
  C        17.5856285130        2.0490008108       22.8821348617
  H        10.4772714091        9.4015952016       13.3828995244
  C        11.3866639938        7.9641044258       12.1174404306
  H         3.3043278862       -0.5439633010       38.1911403758
  H         3.8533180226       -2.0122242812       37.3017077796
  C         5.3604750698       -0.9758148324       38.1721608349
  H         1.3169350744        1.3542563142       16.7708497483
  H         0.7602553238       -0.0181581884       17.7665719778
  C         2.3525738296       -0.5150823160       16.3399431653
  H        17.6458202134        0.9927932860       22.5469368909
  H        18.5684849486        2.3547167488       22.6122247989
  C        17.4300007843        2.0108891527       24.3925877333
  S        12.0426491984        6.4470611133       11.6002984459
  C        11.6096988581        9.0015020894       11.1179982190
  H         6.0429239936       -1.4650613173       37.5117522014
  H         5.6994877113        0.0166501025       38.3288059330
  H         5.2610865680       -1.5432035982       39.0861535450
  H         3.2429649201       -0.0750482784       16.0229477653
  H         1.6957007935       -0.7081091475       15.5002898187
  H         2.5776203093       -1.4503212472       16.7416218108
  H        18.4638801749        2.1205435064       24.8923085908
  H        16.9074475658        1.1309901872       24.7629888439
  H        16.9492568937        2.9202923072       24.6980874547
  C        12.4455145448        7.2311139674       10.0748249461
  N        12.1849426427        8.5021285141       10.0356436052
  O        11.1550689507       10.1823452177       11.2968755631
  S        12.8577605848        6.4317348161        8.5185000457
  C        12.3063797406        9.2819594945        8.8448408449
  H        12.5615882700       10.2838444208        9.1553700539
  H        13.0799668610        8.9801301795        8.1051521343
  C        10.8937970600        9.1591308229        8.1409396874
  H        10.0809237963        9.1942407360        8.8969280925
  H        10.6111296021       10.0037929868        7.5036882031
  H        10.8177347046        8.2331862876        7.6373505571
  H         2.1882132387        3.6590753491       12.3083726347
  C         2.7419625242        2.7902652703       12.5657629125
  H         2.2607024694        1.9625844720       12.0890556496
  C         4.1859920087        2.9824410739       12.1745309684
  C         2.5341892881        2.7016784312       14.0684445254
  C         4.4338217369        3.1075710468       10.5994637081
  H         4.6584242580        2.0594773442       12.4419162835
  H         4.7484198416        3.7574876427       12.6779113281
  H         1.8343594579        3.4340891960       14.4284196042
  H         3.4740527163        2.9836834096       14.6196302001
  H         2.2633978075        1.7089186581       14.4085178236
  C         4.7186038601        1.6577190503       10.0015148944
  H         3.5589743993        3.5502150114       10.1328774391
  H         5.2943384008        3.8016014114       10.5103183508
  C         5.4427954429        1.6143573397        8.5760561239
  H         3.8147649814        1.0308260479       10.1109040513
  H         5.4952744091        1.3292297555       10.6804469961
  C         6.7140843281        2.3973249182        8.5514230009
  H         4.7653350115        1.9042978718        7.7922611494
  H         5.7060922462        0.5854846856        8.3999616048
  C         7.9838645092        1.7511363288        9.0829681944
  H         6.9815203051        2.5594376296        7.5661186672
  H         6.5890594786        3.3886638087        8.9779338935
  C         9.1560795754        2.7565513486        9.3680758599
  H         8.3477825952        0.9986336241        8.3062177181
  H         7.8369872043        1.1203385824        9.9808586210
  C         8.9020051240        4.0503021222       10.0084525347
  C         9.7313035941        3.3984179373        8.1322394171
  C        10.3588246906        2.0808011590       10.0791778513
  C         9.1759020184        5.1905335199        9.1885140415
  C         8.4129456479        4.4384126450       11.2652225339
  C         9.7238161613        4.7729569042        7.9904091809
  C        10.1645822530        2.7087209312        6.9657888955
  H        10.0057155311        1.7600497178       11.0580574592
  H        10.6039925517        1.1429418642        9.6761848095
  C        11.6437214254        2.9393140873       10.1497069001
  S         8.9186019223        6.7344221227        9.9609282303
  C         8.2007214586        5.8200312034       11.2723663542
  H         8.1708893187        3.6338829592       11.9602122368
  C        10.2116433574        5.3265810606        6.7974110880
  H        10.0819784206        1.5822491999        6.9128308283
  C        10.5847967020        3.2940871011        5.7854686448
  H        11.3793802831        3.9609656196       10.4353428440
  H        12.0993089776        2.8821749077        9.1840728404
  C        12.5818638778        2.3318687987       11.2645657300
  C         7.5996268030        6.5211237919       12.4766057601
  C        10.5767173137        4.6549713431        5.6028789416
  H        10.3124391079        6.4118846583        6.8464201597
  C        10.9751443966        2.8173992041        4.5081238711
  H        13.6846359016        2.5988432586       11.0658436499
  H        12.4706489450        1.3064073576       11.1481995088
  C        12.2456237532        2.7055680581       12.6550021282
  C         7.5706664965        7.9395932425       12.7140309706
  C         7.2079637637        5.6857657291       13.6470104885
  C        10.9876234839        5.2708435700        4.2928577686
  C        11.2926019633        3.8489199961        3.7084886492
  S        11.2696745703        1.2625024432        3.8514680547
  H        12.1266221542        3.7715164016       12.6923432992
  H        11.2805844706        2.3144671180       12.9460059215
  C        13.3548262421        2.1733087537       13.6426191069
  N         7.8902171606        8.8517818835       11.7075743681
  C         7.2447263080        8.4921352408       13.9290481929
  C         6.9147365801        6.2925783411       14.8705067951
  H         7.0679354204        4.6546792226       13.5744795821
  C        12.3080842069        6.0636721464        4.4280851699
  C         9.8821015000        6.0640125419        3.5494681881
  C        11.6681363041        3.4442977682        2.4358615942
  C        11.7688159902        2.0737342008        2.3632756158
  H        14.1719978665        2.9009539108       13.5112042811
  H        13.8340209653        1.2943875768       13.3614674563
  C        12.8795653544        2.1454819129       15.1112776673
  S         7.8016482236       10.3203058274       12.3605858665
  N         7.3085373763        9.9039827385       13.8583449574
  C         6.9127612085        7.7290940165       15.0835033222
  H         6.7430911511        5.7056060724       15.6864117272
  H        12.3694997627        6.7532355964        5.2700110968
  H        12.4555110285        6.4743316839        3.4505545161
  C        13.5033545097        5.2264472064        4.6815928427
  H         9.5369753854        6.8057569196        4.2723501740
  H        10.3088264956        6.7717472690        2.7887683645
  C         8.7363301626        5.2327508708        3.0565530105
  H        11.7738315416        4.2203799844        1.7156259225
  C        12.0881538303        1.2887395435        1.1201594248
  H        12.1057025030        2.8982773695       15.2724001392
  H        12.3789686112        1.2221661660       15.3259413429
  C        13.9193005665        2.3794296434       16.2367605109
  C         6.8018545638        8.4384580202       16.2992519962
  H        13.3591444632        4.5995113655        5.5607307558
  H        13.7184924082        4.5404508079        3.8526116896
  C        14.8276402516        6.0887125269        4.8085726705
  H         8.2084140785        4.6847020952        3.8766215671
  H         9.0427388095        4.5705036730        2.2570640769
  C         7.6781114858        6.1883650208        2.4385438075
  C        12.0186043633       -0.0925433937        0.9800609255
  C        12.1763621202        2.0592971558       -0.1116429662
  H        14.6323824911        3.1400381770       15.9299817384
  H        14.4824469372        1.3931415664       16.4119398523
  C        13.1609213460        2.6257987215       17.5940825207
  H         7.0522550221        9.4784394069       16.1859881060
  C         6.4223231051        8.0574312288       17.5941056302
  H        14.7963599648        7.0647047724        5.3738381266
  H        15.1800768973        6.4292983120        3.8199123273
  C        16.0133314487        5.3613773657        5.4351029102
  H         7.2939403501        6.8671543455        3.1927893062
  H         8.1990777965        6.8243296172        1.6531941821
  C         6.4797005057        5.5384500858        1.8513189148
  N        11.7555633598       -0.9921980146        1.9966283667
  C        12.3253987112       -0.7232975565       -0.2029932964
  C        12.4738510923        1.4485029830       -1.3311521501
  H        11.9973877169        3.0885974279       -0.0717119527
  H        12.7232097381        3.6288702464       17.7053719117
  H        13.8507360453        2.6329822109       18.3789480802
  H        12.3470032830        1.9149467959       17.7460921055
  S         6.1450480820        6.4927638920       18.0786518483
  C         6.2657533982        9.1281001896       18.5998629591
  H        15.5895455012        4.6983933416        6.1354390370
  H        16.6095487740        4.8038484643        4.6745279358
  C        16.7385780019        6.2130093911        6.4247645085
  H         6.2509227568        4.5207812240        2.3350374655
  H         6.7057409290        5.2488047570        0.7849339332
  C         5.3291784672        6.5622264632        1.9567542888
  S        11.8052478268       -2.4739287228        1.4119088562
  N        12.2560007724       -2.1191614340       -0.0737391486
  C        12.5352713646       -0.0138272137       -1.4201385464
  H        12.5040288148        2.0468823887       -2.1945497660
  C         5.8741049093        7.1322535798       19.6993492980
  N         6.0052258974        8.4790806251       19.7840203324
  O         6.4646471428       10.3310975507       18.4356884968
  H        17.2661034297        7.0660849669        5.9508633368
  H        16.0450084513        6.6020867596        7.1237876971
  C        17.7626284787        5.2838202838        7.1754169491
  H         4.5180328108        5.9756009090        1.6412893694
  H         5.0663180646        6.8333005924        3.0245699244
  C         5.4430839488        7.7780505988        1.0725172900
  C        12.6852194785       -0.7559682948       -2.6513320726
  S         5.0653514791        6.3503673588       21.0034958524
  C         5.9101496263        9.1515462534       21.0679476380
  H        17.4560571838        4.9512100456        8.1237035878
  H        17.7685252116        4.3272003900        6.7021734945
  C        19.1171287817        6.0076695200        7.4061802124
  H         5.4393220238        7.4408744319       -0.0204951164
  H         6.3933989696        8.2637910249        1.2321096613
  C         4.4286350695        8.8805742133        1.3160973748
  H        12.3563623737       -1.7746216206       -2.5787176562
  C        13.2451352285       -0.3504946400       -3.8368713099
  H         4.9462735927        9.0493922672       21.5728056310
  H         5.9029462465       10.2338921007       20.8692332772
  C         7.0705609730        8.9718373966       22.0354804821
  H        19.6984838313        5.3912659106        8.0597487775
  H        18.9378111394        6.9674081269        7.9293440157
  C        19.9122313721        6.0968510870        6.1202438064
  H         4.4782750172        9.5537336333        0.4993970324
  H         3.4187255884        8.5049405711        1.3305583866
  C         4.5666892940        9.5127142502        2.7046482849
  S        13.6976727678        1.2607043661       -4.2504996581
  C        13.3567194367       -1.2553152391       -4.9544161346
  H         6.8966006064        8.2805430586       22.8909046417
  H         7.4947858435        9.9611735428       22.3368264120
  H         7.7625998517        8.4031589400       21.4213703123
  H        19.9688097649        7.1235247372        5.6461341168
  H        20.9379143135        5.8614513370        6.2870378533
  H        19.5688362665        5.3580609884        5.3928193092
  H         3.7939184112       10.3096083034        2.8064999296
  H         4.3102656097        8.7218121999        3.3499976243
  H         5.5014951155        9.9614501058        2.9527473416
  C        14.1412362763        0.6713783679       -5.7990714440
  N        13.9860359771       -0.6722132460       -5.9590870241
  O        13.0229226392       -2.4328151894       -4.9689251147
  S        15.0070815792        1.5712433825       -7.0167984615
  C        14.0716711465       -1.3958498736       -7.1524815224
  H        14.3407807966       -2.4326191346       -7.0253899138
  H        14.9669436501       -0.9739009835       -7.6562853178
  C        12.7896800734       -1.2573718402       -7.9336997023
  H        11.8929994008       -1.1305798459       -7.3103851014
  H        12.7898948700       -2.1104492619       -8.6550576557
  H        12.8806142587       -0.3570922635       -8.5593475600
