352
 i =    87500, time =    43750.000, E =        99.0145100458
  H        12.2297198126        6.9029557505       32.4149417621
  C        11.6817798426        5.8507498732       32.4942334662
  H        12.5040909975        5.1356462383       32.3016258247
  C        10.6888381636        5.9671846658       31.4401323535
  C        10.9755823801        5.6484720490       33.8061821176
  C        11.3300255268        6.2155480667       30.1198853663
  H        10.0063684493        5.0814276664       31.4180292969
  H        10.1385181042        6.8529301277       31.7147222898
  H        11.6639101450        5.8593168352       34.5714736665
  H        10.1584788723        6.3633009207       33.8787907837
  H        10.5395568245        4.6138373057       33.9263986493
  C        10.2080489870        6.0375527832       29.1450560459
  H        12.0834629281        5.4695668209       29.8704696626
  H        11.8295534004        7.2354406554       30.0060221495
  C        10.7549262462        5.7395318154       27.6573472318
  H         9.5626201718        5.2678217978       29.5131983643
  H         9.5661505995        6.9153171336       29.1161195465
  C         9.6833014280        5.1875584940       26.7521276567
  H        11.5257492477        4.9180291605       27.6963000774
  H        11.1412002029        6.6538855110       27.1442564407
  C         8.4543448178        6.0962742457       26.4250666299
  H        10.2530804268        4.9226484610       25.8333586488
  H         9.2707422452        4.3538715522       27.2192720286
  C         7.2768037932        5.4179966602       25.7209694411
  H         7.9256772332        6.5918567705       27.2840379200
  H         8.8570696351        6.8835960868       25.8325478937
  C         6.9021529500        4.0706920374       26.4737728596
  C         7.7538245520        4.7173958550       24.4936034748
  C         6.1449502241        6.4532894748       25.3542666774
  C         7.0973047241        2.9715276264       25.6568290273
  C         6.5668023016        3.6825222643       27.7457771015
  C         7.6104837183        3.3641341131       24.4144042656
  C         8.2079790919        5.2556767474       23.3040095996
  H         6.4787905465        7.1561686322       24.6006957952
  H         5.9548266786        6.9912251409       26.1960963865
  C         4.8672348938        5.6862374794       24.9819281658
  S         6.6079326964        1.4138172370       26.3358236577
  C         6.3870773028        2.3228835491       27.8315399214
  H         6.4476080281        4.4301961246       28.5417006590
  C         7.9327272017        2.6460499766       23.2996164882
  H         8.4235917012        6.3131910187       23.2903124662
  C         8.4446244635        4.5544285414       22.1863416617
  H         4.9965136073        4.9904077490       24.1880964158
  H         4.5582682520        5.1046407930       25.8156202410
  C         3.5471982479        6.4449054105       24.7452151355
  C         5.9549980325        1.6852709962       29.1118989619
  C         8.3695755864        3.2162945156       22.1032952425
  H         8.0284830149        1.5738572439       23.4130999603
  C         8.8725325930        4.8941046082       20.9102799732
  H         2.9467172748        5.8827418791       24.0617907997
  H         3.6664402088        7.4356592754       24.2866571176
  C         2.8245217805        6.6743129564       26.0775980687
  C         5.8545227156        0.3417072294       29.3997544099
  C         5.4746976146        2.5722107832       30.2664745562
  C         8.8106478790        2.4879752006       20.8876584495
  C         9.0102949634        3.7942477670       20.1098975742
  S         9.3217877128        6.3773661180       20.1781169384
  H         2.0200379218        7.3535077320       25.9900537588
  H         3.4787158751        7.1559268066       26.7216698387
  C         2.1414502519        5.4458035426       26.6331357522
  N         6.0730918677       -0.6601084235       28.4006440937
  C         5.4626424607       -0.2506271169       30.5824171176
  C         5.1970446053        1.9847787730       31.5386223888
  H         5.6035904259        3.6509552264       30.1349616737
  C         7.6356480580        1.4933927821       20.3087009133
  C        10.0995942596        1.5862478075       20.9348805262
  C         9.3981079333        4.1368253838       18.8289860647
  C         9.6312353977        5.5316554832       18.7682209847
  H         1.3426905631        5.2054820433       25.9104028528
  H         2.6682523653        4.4758612257       26.5114021430
  C         1.4060395086        5.4824451040       28.0241770558
  S         5.8382800174       -2.2134431429       29.0558563946
  N         5.5255538447       -1.6704715497       30.5371572415
  C         5.1778162950        0.5167512852       31.7760036787
  H         4.9166536960        2.5642338160       32.3774852329
  H         7.4853876730        0.5802080685       20.9295549829
  H         8.0128545712        1.1799884750       19.3731434967
  C         6.2441932311        2.0933871908       20.1491244871
  H        10.1877016692        1.0719724983       19.9817370819
  H        10.0006544289        0.7995317525       21.7534042639
  C        11.4538384623        2.3675444468       21.1088506963
  H         9.5334031854        3.3770513879       18.1185528054
  C         9.9234967795        6.3886702907       17.5255208777
  H         0.8812447098        4.5324880700       28.0275669195
  H         0.6541615249        6.2714500816       27.9391138235
  C         2.3027781907        5.7361927162       29.2409390265
  C         4.9185427329       -0.1957163590       33.0420790890
  H         6.0845018639        3.0124985445       20.7176436666
  H         5.5985329135        1.3347497673       20.6239420785
  C         5.9782436104        2.4213712545       18.6572449922
  H        11.3045330714        3.2096666661       21.8477627035
  H        11.7373702833        2.8010063740       20.1156360154
  C        12.6117068328        1.4098761032       21.4223645777
  C         9.9806197603        7.8298530953       17.4832128292
  C        10.3455196491        5.7300784826       16.2653129304
  H         3.0769233727        4.9472416340       29.3488911102
  H         2.8939272694        6.6927800116       29.1185021160
  C         1.5116916787        5.6942502397       30.5478244863
  H         4.9151558793       -1.2803498916       32.9147965728
  C         4.7086650839        0.1626619421       34.3571603602
  H         6.6288226569        1.8610874780       17.9466511246
  H         6.3040810250        3.5029970159       18.5125664231
  C         4.5407117645        2.1693694583       18.2436018082
  H        12.4115678846        0.9151665784       22.4387080958
  H        12.6998096622        0.6102056097       20.6436100404
  C        13.9494024727        2.1738149413       21.4920217406
  N         9.4633945310        8.7114665099       18.4511112275
  C        10.3733314762        8.5061223440       16.3387967476
  C        10.6663702889        6.4161885917       15.1331887040
  H        10.3931396172        4.6061825268       16.3060726694
  H         0.9416190855        4.7911408287       30.7348341581
  H         2.1736682989        5.8137295119       31.3741384858
  H         0.7896481595        6.5119149132       30.7267298575
  S         4.5048372387        1.7253369112       35.0148527773
  C         4.7081798397       -0.9559440265       35.3728250627
  H         3.9460481365        2.6101065757       19.0293050374
  H         4.2920674463        2.6205484924       17.2725863182
  C         4.2796663270        0.6486456073       18.1283118970
  H        13.7581692974        3.2277508526       21.5735329343
  H        14.6246474677        1.9553161386       20.6607714735
  C        14.6140730951        1.6893295969       22.7577528376
  S         9.6165475759       10.2085972523       17.8727459387
  N        10.2757873264        9.8837411460       16.4677181802
  C        10.7087181054        7.9220859347       15.1092653045
  H        10.8499393895        5.9278138924       14.2468811324
  C         4.3245983349        0.9311323400       36.5418875519
  N         4.4483800831       -0.3859092099       36.5428995785
  O         4.8644404689       -2.1451794580       35.0188173918
  H         4.7481843137        0.1553728738       19.0086343651
  H         4.6749522181        0.3508297073       17.1930180721
  C         2.8373491656        0.3283450823       18.1260837823
  H        13.9058998724        1.6905145293       23.6215923366
  H        15.1058016443        0.7826283927       22.6180636673
  C        15.7094738895        2.6787917559       23.2634109602
  C        10.9880730361        8.7317584704       13.9766922256
  S         4.0437228022        1.8641426473       38.0174792948
  C         4.4534205723       -1.2249880099       37.7392826795
  H         2.3727995013        0.9222890651       18.8886872730
  H         2.3303331906        0.7179631659       17.1989328656
  C         2.5483192531       -1.1677161991       18.2982862540
  H        15.5115374001        2.9368149243       24.2400952377
  H        15.5801943915        3.6479493071       22.8057904417
  C        17.1190731797        2.2972513270       22.9797589482
  H        10.7262185589        9.7958786428       14.2227475926
  C        11.4083310895        8.4266814427       12.6650605830
  H         3.6150145784       -0.9635824118       38.4100437969
  H         4.2917021823       -2.2410267179       37.4168407501
  C         5.8524207323       -1.0351591098       38.4097067201
  H         1.4750075603       -1.4498994619       18.3412514552
  H         2.9177734202       -1.5715727523       19.2514480404
  C         3.0650951514       -2.0225172032       17.1498954483
  H        17.3751125143        1.5442461450       22.2094893890
  H        17.5859969243        3.2510102851       22.7633938484
  C        17.6506472473        1.6406083689       24.2561223587
  S        11.7917587991        6.8545344711       12.1553136292
  C        11.5672722086        9.6042706869       11.7743266139
  H         6.6879511234       -0.6602303010       37.7922373546
  H         5.8059257181       -0.3999428694       39.2902588517
  H         6.2544657804       -1.9924305299       38.6071765600
  H         4.0140885451       -2.4915952507       17.3637231470
  H         3.1794675890       -1.3562884101       16.3166790197
  H         2.4317952307       -2.8485201234       16.9278181641
  H        17.5957776524        2.2644598382       25.1555102593
  H        18.6661227379        1.2850274171       24.1318868416
  H        17.0515772247        0.8345519737       24.5290946161
  C        12.3412562573        7.6874064698       10.6998948255
  N        12.1350928643        9.0320894853       10.6570204616
  O        11.4559241984       10.7610717741       12.1486609313
  S        13.1457012879        7.0354899932        9.3631779450
  C        12.4435872744        9.8188722824        9.5231598997
  H        12.6113174057       10.8502763585        9.6808990828
  H        13.4283490517        9.5390721130        9.1822629526
  C        11.4165224372        9.6268803708        8.3443278143
  H        10.4898894555        9.1222368590        8.6507098488
  H        11.2202617029       10.5581739250        7.9065426706
  H        11.8238007052        8.9874568158        7.5368891920
  H         4.1207310216        1.2079698107       12.4592109969
  C         3.8109903764        2.2306467796       12.6175967402
  H         4.6142220232        2.9064009339       12.6660694314
  C         2.9137580371        2.5744332508       11.4473216230
  C         3.0906272627        2.2739365006       13.9584561571
  C         3.6777705542        2.9542918008       10.1237502814
  H         2.3162450572        3.4108643541       11.8519470152
  H         2.2443150093        1.6247327049       11.2463340397
  H         2.5695980709        1.3271955149       14.2820350641
  H         2.3655236036        3.0952437840       13.9889477284
  H         3.7694280969        2.4643080944       14.7845571822
  C         4.5550420796        1.7655951165        9.8535269351
  H         2.9891953161        3.0420033160        9.2434003640
  H         4.2802184254        3.8812607113       10.1319064728
  C         5.3533962817        1.8951770426        8.4982127191
  H         3.9735828037        0.7940119418        9.8157595753
  H         5.2901447171        1.6248730541       10.6209152045
  C         6.5903450854        2.7891672561        8.5427558768
  H         4.6571269415        2.3346927738        7.7525164395
  H         5.6684581718        0.9279768156        8.0352910787
  C         7.7811099770        2.0084794772        8.9960776114
  H         6.9224712955        3.1390075871        7.5394195036
  H         6.4295623783        3.6567775740        9.1168835428
  C         9.1081270234        2.8516709442        9.0100183566
  H         7.7793477338        1.1618376146        8.3505008294
  H         7.5427285903        1.5410351956        9.9368146723
  C         8.8716532966        4.1602523656        9.8092289492
  C         9.5561159547        3.6427570034        7.8379912168
  C        10.3390324807        2.1296113848        9.5857808826
  C         9.0754610654        5.2871959901        9.0277261616
  C         8.4174172316        4.4461539215       11.0817553970
  C         9.5368149945        4.9747401480        7.7953009010
  C         9.9350480426        3.0637828609        6.6208121716
  H         9.9939925682        1.5655733903       10.5219728526
  H        10.6944398202        1.3681335311        8.8738119720
  C        11.5082406756        3.0783810398        9.8993674140
  S         8.8116799960        6.7149067213        9.8761591685
  C         8.2717063219        5.8173810337       11.2449602034
  H         8.1296182304        3.6237014410       11.7496757123
  C         9.9004767605        5.6396886962        6.6146499272
  H         9.8816471358        2.0064240250        6.7526524027
  C        10.3025641925        3.6469770185        5.4449665734
  H        11.1918573638        3.6306173990       10.7845654960
  H        11.8446037761        3.7934672478        9.0943654098
  C        12.7159394991        2.2738680481       10.5706089878
  C         7.8627483560        6.6023140738       12.4922843294
  C        10.2586388138        4.9584418879        5.4105995623
  H         9.8653543871        6.7540499139        6.5289277857
  C        10.7256688412        3.2578449131        4.2303672491
  H        13.6416922422        2.8646766352       10.5388111121
  H        12.9440725063        1.3418636219       10.1237976520
  C        12.4635367792        2.0737405429       12.0304221703
  C         7.8110788328        7.9883651559       12.6995191744
  C         7.4242545021        5.7936046601       13.6184367951
  C        10.6549841175        5.6690821335        4.1788564758
  C        10.9466747203        4.3797665031        3.4824163723
  S        10.9962256760        1.8107312826        3.4607046309
  H        11.5391224927        1.5965266871       12.1552585700
  H        13.1434660526        1.3965788993       12.3926383890
  C        12.5472075297        3.3956550461       12.7812649655
  N         8.0824643986        8.9774546499       11.7418977847
  C         7.4896819245        8.5591973824       13.9171872415
  C         7.0833072907        6.3226476950       14.8733672750
  H         7.2925914872        4.7115800434       13.5086538099
  C        12.0466316670        6.5036329121        4.3055202963
  C         9.6558556997        6.4248831963        3.2876212246
  C        11.3652270974        4.0089739479        2.2289262284
  C        11.3946009095        2.6491399280        2.0622442973
  H        12.0934943564        4.2806422275       12.3950831284
  H        13.6393872803        3.6503172608       12.7530540478
  C        12.0017413521        3.2578194851       14.2537904193
  S         7.9858766092       10.4186494754       12.4315510261
  N         7.5096761787        9.9932085179       13.9413241683
  C         7.1243564697        7.8111605285       15.0843630260
  H         6.6850820595        5.7017043404       15.5845301773
  H        11.8738225437        7.4740241816        4.7421285006
  H        12.5051711263        6.6696829899        3.2612727750
  C        13.0569940289        5.8159669740        5.2259051439
  H         9.5718412434        7.4001550573        3.6794363690
  H        10.0793507539        6.4947298174        2.3404852162
  C         8.2719316351        5.7428288883        3.2871452371
  H        11.5968594937        4.8252229134        1.5189791797
  C        11.8734261059        1.9455436874        0.8489220072
  H        12.0610651671        4.1647125807       14.8987303987
  H        10.9281182565        3.0136277951       14.1430792741
  C        12.7026432308        2.1597672847       15.1056681244
  C         6.8049301062        8.4575094779       16.3195576245
  H        12.5657568717        5.8497533707        6.2385919055
  H        13.1723981936        4.7842030550        4.9083664250
  C        14.4628734025        6.5058939093        5.1474286896
  H         7.8116078746        5.7370991983        4.2808990949
  H         8.3959246538        4.7484773547        2.9242620267
  C         7.4335744989        6.4533974911        2.2500181336
  C        11.9635104204        0.5339184587        0.8130803712
  C        12.4439730748        2.7374361194       -0.2797253637
  H        13.5839809442        1.8909902713       14.5591795309
  H        12.1220777553        1.3308460323       15.1944742157
  C        13.1969525853        2.5883989231       16.4799361299
  H         6.7727632401        9.5363551855       16.3892972689
  C         6.5781473151        8.0432961931       17.5953695795
  H        14.1911583695        7.5243154564        4.9601188915
  H        14.8538027943        6.0442712403        4.1947334414
  C        15.3851533654        6.2591861834        6.3169428743
  H         7.6429340960        7.5492680727        2.3218231788
  H         7.7202794990        6.0276765794        1.2514124219
  C         6.0091960069        6.2302625745        2.5025797294
  N        11.6375185006       -0.4450913028        1.7623895360
  C        12.2803483418       -0.0555251033       -0.3904409884
  C        12.7243788452        2.1005383616       -1.4643253325
  H        12.4501026723        3.8398160395       -0.2811959429
  H        12.4642864628        3.2133165142       17.0448154045
  H        14.1118545156        3.1844358313       16.3111056916
  H        13.4329728097        1.6813815114       17.0796883042
  S         6.4040139056        6.4464352487       18.1799005283
  C         6.4292051865        9.0257355335       18.7309330010
  H        15.9199385054        7.1880833258        6.6567215818
  H        14.8438831531        5.8866967522        7.1420322261
  C        16.4809534876        5.2978548591        5.8253271296
  H         5.9400329640        5.3934091574        3.2433989757
  H         5.4657524219        5.7483099967        1.6472973446
  C         5.4135816706        7.4928907422        3.1698412636
  S        11.8874398064       -1.9808143061        1.1983038409
  N        12.3072927492       -1.4685659930       -0.3076912859
  C        12.5837155830        0.6261252485       -1.5755868082
  H        13.0777292874        2.6283980493       -2.2722759728
  C         6.0266601188        7.0725472514       19.7222435035
  N         6.1540497273        8.3855519112       19.9172574980
  O         6.5329205683       10.2360348950       18.6764897659
  H        16.2260223391        4.4599542801        5.1840241079
  H        17.2201123623        5.8364556542        5.1761983289
  C        17.2618383053        4.8258190636        7.1248218917
  H         4.4580014609        7.0363075755        3.4466358098
  H         5.8307380389        7.8197353604        4.0140769703
  C         5.2191904842        8.7024489858        2.2843647693
  C        12.8514874128       -0.1200777923       -2.7308988533
  S         5.5386300246        6.0970284133       21.1380841709
  C         6.0117647436        9.0925161240       21.1888556792
  H        16.6390319338        4.8333148890        8.0498521963
  H        17.6023977900        3.7431614957        7.0190996483
  C        18.5363820478        5.6282457343        7.4129555896
  H         5.6977865332        8.5351066856        1.3121174407
  H         5.6678359123        9.6590929692        2.7038427232
  C         3.6921573545        8.8221625438        1.9955389184
  H        12.6389356703       -1.1979214464       -2.7063161894
  C        13.3463316013        0.2570280055       -3.9870518907
  H         5.0339446144        8.9081643018       21.5893397318
  H         5.9391163349       10.1519595206       21.0631782963
  C         7.3071182671        8.9954269671       21.9791792030
  H        18.8408674850        5.4127234273        8.5029706814
  H        18.3757075679        6.6791081338        7.3982388419
  C        19.8451680124        5.3625436586        6.6306437651
  H         3.2994663901        7.8333778701        1.7124964354
  H         3.1290594336        9.1034619222        2.8601457897
  C         3.5592061062        9.7021303473        0.7806100107
  S        13.8494145581        1.8170939052       -4.4839828731
  C        13.6564191424       -0.8474830936       -4.9324744541
  H         7.0611735921        9.0067911553       23.0407908194
  H         8.0967568409        9.6835448101       21.8462194992
  H         7.9308880729        8.1092178838       21.8001160241
  H        20.4117282394        6.2780426649        6.6823151325
  H        20.4341563098        4.6287086924        7.1362509728
  H        19.6597663720        5.1526592727        5.5895266231
  H         2.7492351705       10.4570486804        0.8986548346
  H         4.4349154273       10.2646219532        0.4345859926
  H         3.3197570181        9.0475949518       -0.0747535577
  C        14.2444868217        0.9761248056       -6.0441576692
  N        14.0827696205       -0.3160062322       -6.0717917989
  O        13.5108808620       -2.0657553725       -4.7385474609
  S        14.9797833073        1.7028511711       -7.3767296555
  C        14.3251995531       -1.0730169661       -7.3164301156
  H        14.5800265131       -2.1506987007       -7.0747730899
  H        15.0972564356       -0.7883510933       -8.0227763707
  C        13.0995809539       -1.2196621005       -8.2339246242
  H        12.4057120529       -0.5113216450       -7.7305694612
  H        12.6886436979       -2.1665825055       -8.1085988797
  H        13.2938263646       -1.1740382682       -9.3049636941
