352
 i =    70800, time =    35400.000, E =        99.3467138978
  H        11.8577950018        6.9044586723       32.3724561414
  C        11.6274638311        5.8368868343       32.2642460996
  H        12.6139296570        5.4388527356       31.9569941717
  C        10.5611364956        5.8003638083       31.1819578840
  C        11.2530134495        5.2830087899       33.6975597481
  C        11.1990160285        6.0759248462       29.8196493140
  H        10.2098305860        4.7875337979       31.1899684583
  H         9.6951279611        6.4582208128       31.3294403099
  H        11.4613924189        4.1853288817       33.9210418546
  H        11.6521041348        5.9505343027       34.4883993303
  H        10.1807181397        5.5196579389       33.8119688486
  C        10.3896300672        5.4000989628       28.7065454724
  H        12.2063140431        5.7104209223       29.8207148117
  H        11.2848696416        7.1125444952       29.6197555066
  C        10.9270962083        5.8188082939       27.3085933737
  H        10.4177135831        4.3354471946       28.8369767766
  H         9.4628579537        5.8737801876       28.7997705012
  C        10.0416634926        5.3113808984       26.1848415218
  H        12.0074008237        5.5290259054       27.2881477841
  H        11.0004062831        6.9506814889       27.3302056596
  C         8.7057818671        6.0058110150       26.0165507736
  H        10.6046944398        5.1469811465       25.3046410873
  H         9.8190904325        4.2303367458       26.4068219995
  C         7.6145556453        5.2654805063       25.2692026801
  H         8.4155491416        6.3007821091       26.9847038223
  H         8.8913577014        6.9318764049       25.4554047127
  C         7.2684356639        3.9005226159       25.8272697531
  C         8.1182978049        4.5458220093       24.1025678005
  C         6.3811346924        6.2309365675       25.1280082885
  C         7.5675275501        2.7564800565       25.1095895968
  C         6.6195053669        3.5238152230       27.0222333470
  C         8.1754799583        3.1775800113       23.9249755342
  C         8.6234468663        5.1378603193       22.9923929938
  H         6.5165214540        7.1038358255       24.4888474536
  H         6.1618130212        6.5798675447       26.1072830362
  C         5.1597353197        5.4659122749       24.6009822143
  S         7.0762589450        1.2768614618       25.7398202251
  C         6.4273531086        2.1592626062       27.1294437329
  H         6.3909215343        4.2765284395       27.7703985748
  C         8.6521604316        2.5415800206       22.8277106807
  H         8.6296413242        6.1760592236       22.9638143598
  C         9.0343037585        4.5607972989       21.8339727042
  H         5.4970725339        5.2398035259       23.5914181855
  H         4.8200628816        4.5238329181       25.0936754070
  C         3.9611543891        6.4225797300       24.5604175191
  C         5.9569537992        1.4452237871       28.3584684538
  C         9.0325629933        3.2137130263       21.6809562363
  H         8.6924870751        1.4704433314       22.7550039730
  C         9.5393921884        5.0277362618       20.6381486218
  H         3.3658500826        5.8563965195       23.7950815457
  H         4.3398362485        7.4299014253       24.1171908112
  C         3.2021991701        6.5727815509       25.8703073062
  C         6.0546983040        0.0598004974       28.5937132873
  C         5.4918446603        2.1811438672       29.5626998559
  C         9.4917934280        2.6293916172       20.3697224960
  C         9.6849466375        3.9806378076       19.7183103138
  S         9.7320230187        6.5942060141       19.9272359264
  H         2.6345504008        7.5534955204       25.8574261042
  H         3.9433275802        6.7627370048       26.6384430337
  C         2.4042797719        5.3368282807       26.3009800521
  N         6.4160583928       -0.8774982931       27.6368569229
  C         5.8499752857       -0.5374202687       29.8549989635
  C         5.2180949171        1.6000803691       30.7855993822
  H         5.4521027105        3.2626439739       29.4629390838
  C         8.2978541467        1.7533618627       19.8496310711
  C        10.8655755601        1.8657410633       20.5198639590
  C         9.9683042134        4.4469744068       18.3885206975
  C        10.0630794599        5.8395165669       18.3594996353
  H         1.7416734501        5.0915748713       25.5231738080
  H         3.0805599915        4.4775963367       26.2636403120
  C         1.6549092772        5.4656604454       27.6802840338
  S         6.5501629702       -2.3642420112       28.3166304657
  N         6.0547004673       -1.9319007482       29.7598595683
  C         5.4190158736        0.1802355177       31.0258110900
  H         5.0291614931        2.2272105874       31.5948759556
  H         7.9588621202        1.1327533869       20.6530337442
  H         8.5534618594        1.2537286734       18.8850544707
  C         7.0636034035        2.5507270988       19.5395295450
  H        11.1559196238        1.4983558966       19.5238197274
  H        10.8014714059        1.0749398939       21.1860211986
  C        12.0638353640        2.6279195103       20.9418844748
  H        10.1646433772        3.6942121205       17.6517358784
  C        10.3591191472        6.6248350752       17.0949477550
  H         1.0489769722        4.5425100125       27.6288019905
  H         0.9958472549        6.2817655867       27.7229356305
  C         2.5710797661        5.5870315753       28.8779929981
  C         5.1413934670       -0.4609969559       32.2576003542
  H         7.3788119573        3.4016204952       18.8668786376
  H         6.6990752842        3.0402018506       20.5030804539
  C         5.9601136132        1.7433655196       18.8665046762
  H        11.9316263078        2.8771082351       21.9856771006
  H        12.2427550722        3.5925381864       20.4235799792
  C        13.2683164155        1.7134504896       20.9373748882
  C        10.2934131173        8.0376802877       16.9795670949
  C        10.6137018477        5.9150585320       15.7632666276
  H         3.2345708138        4.6933276189       28.7957275910
  H         3.2316764877        6.4646230154       28.8966677936
  C         1.7026889866        5.5172887155       30.1148877729
  H         5.1736724022       -1.5713443124       32.2290896025
  C         4.8943512683       -0.0883402058       33.5359912085
  H         5.5612460283        0.9991707791       19.6428764673
  H         6.3866670821        1.1766412331       17.9780881120
  C         4.8872279602        2.6590063487       18.2722149002
  H        13.0948143215        1.1797945832       21.8084422960
  H        13.3778143581        1.0279562139       20.1158195847
  C        14.5880836198        2.4199633186       21.1318540663
  N        10.0596927659        8.9101086663       17.9967787536
  C        10.5667126854        8.6786520946       15.7701670044
  C        10.7275615865        6.5505431423       14.5527356648
  H        10.6468964929        4.8360411716       15.7117075884
  H         1.3133136873        6.4622256589       30.3608195190
  H         0.8629406083        4.8530282835       29.9853149804
  H         2.2251531227        5.0429356514       30.8950194582
  S         4.7265108305        1.5055285071       34.0700899738
  C         4.8374076416       -1.0895501385       34.5874451549
  H         5.1901201609        3.6762328617       18.5769936943
  H         5.0538964895        2.5996402339       17.1786432807
  C         3.4763342756        2.2683064927       18.5921538390
  H        14.6461804980        3.4055863641       20.5814320749
  H        15.4062710514        1.7781946499       20.6386200332
  C        15.0020510489        2.4272446794       22.6228639004
  S        10.2272969966       10.4068506341       17.4285476855
  N        10.4841078375       10.0863960178       15.8465197521
  C        10.9377458396        7.9960657185       14.5159677756
  H        10.8960363585        5.9875840984       13.7045625592
  C         4.5216162118        0.8993971939       35.6654692597
  N         4.5393576547       -0.4828535360       35.7824154311
  O         4.9360956197       -2.3371654892       34.4021852147
  H         2.7367277732        2.9807952212       18.2106005611
  H         3.3550449662        2.0535874248       19.6582134354
  C         3.2825402612        0.9015681199       17.9109715518
  H        14.1553526300        2.6976060311       23.2962691638
  H        15.3409500513        1.4046470954       22.9270644842
  C        16.0942905278        3.3370929970       23.0633533450
  C        11.1935114424        8.7500613544       13.3762730765
  S         4.0439552133        1.8969772591       37.0504418239
  C         4.4152773543       -1.2548353490       37.0319158122
  H         2.9194316400        1.0386861270       16.8971459593
  H         4.1686846110        0.2809328586       17.9007179656
  C         2.2505892463        0.1684169259       18.7245024615
  H        16.0816147270        3.3840791848       24.1885383443
  H        15.8067106803        4.3638381794       22.8091818865
  C        17.4509382385        3.1086440431       22.2785335990
  H        10.8363917588        9.7890245786       13.4045776442
  C        11.7394304432        8.4012472706       12.1493738540
  H         3.5289405527       -0.8411093212       37.5563163664
  H         4.1822222535       -2.3225326241       36.8857579590
  C         5.6832066668       -1.1815097929       37.9330054652
  H         1.4005144702        0.7610645138       18.7763377424
  H         2.5179220921       -0.1021410605       19.7422168036
  C         1.8575029614       -1.1548070543       18.1502675828
  H        17.2449762619        2.7224405053       21.2779646649
  H        17.9193153779        4.1105986897       22.2105211034
  C        18.4192681362        2.2241462774       22.9074454008
  S        12.4123491533        6.8868926535       11.7039098123
  C        11.8113038337        9.5315281877       11.1579958399
  H         6.4012142157       -1.9889179128       37.6800940918
  H         6.2121815129       -0.2907700440       37.8810323182
  H         5.5195467805       -1.2885450909       39.0236338344
  H         1.4176189370       -0.9000277059       17.2196082047
  H         1.1285817222       -1.6859127331       18.7384426128
  H         2.7936205045       -1.6795373372       18.0354318200
  H        19.3838111687        2.2868960759       22.4374655974
  H        18.0074381934        1.2667585427       22.7342632089
  H        18.5562596692        2.3890994306       23.9727850601
  C        12.7911671353        7.7432538380       10.1457818359
  N        12.5018194662        9.0894914780       10.1589120830
  O        11.5820875453       10.7408451680       11.3623397688
  S        13.9018723983        7.0728004473        8.9092636415
  C        12.7811929495       10.0234341529        9.0393747772
  H        13.1015712422       10.9671942919        9.4442667035
  H        13.6745655630        9.7227206187        8.5507931937
  C        11.6658919862       10.1262552102        8.0035077329
  H        10.7261191715       10.4820029155        8.4915370413
  H        11.9834690006       10.7526659475        7.1580570019
  H        11.3957282898        9.1493187475        7.6111745931
  H         3.7377753300        2.0252508429       12.2075366637
  C         3.7256073121        3.1256712343       12.2884042854
  H         4.8154186649        3.2893129049       12.5006071248
  C         3.3425765575        3.8199293316       10.9019785893
  C         2.8821345136        3.6299988017       13.4683225068
  C         4.6036576423        3.8284940600        9.9006319854
  H         3.0294225192        4.8490907497       11.1617989810
  H         2.5838796967        3.1782204758       10.4913228662
  H         2.6013051554        2.7565318201       14.0470196649
  H         1.9713091463        4.2431377807       13.2813720433
  H         3.4623524704        4.2583672116       14.0804905189
  C         4.9016825419        2.6108243205        9.0625319500
  H         4.5692718459        4.7145569825        9.2776240576
  H         5.5222926864        3.8568482259       10.5586474180
  C         5.7962869514        2.8064294107        7.8641443166
  H         3.9633688995        2.1687869344        8.7135321426
  H         5.3500934214        1.8629635922        9.7063780258
  C         7.1303892596        3.6033809814        8.0441788155
  H         5.2197224419        3.3537425229        7.1015902485
  H         6.0174828417        1.9077584964        7.3235564292
  C         8.2803311475        2.9410580685        8.7103454893
  H         7.3767613434        3.8057698597        7.0351035360
  H         6.9774040066        4.5659477152        8.4804416383
  C         9.6979735198        3.7144265319        8.7678773021
  H         8.5087533528        1.9258886514        8.2465855665
  H         7.9255347878        2.7990882862        9.7560958686
  C         9.4079549763        5.1426826832        9.3949003942
  C        10.0804392895        4.4406782863        7.5237565795
  C        10.8311667046        2.9207053896        9.5028789259
  C         9.6190203849        6.2608619762        8.6313250472
  C         8.8804791835        5.4571502421       10.6936214952
  C        10.0844433604        5.7884245576        7.4415616114
  C        10.5520601891        3.7725979978        6.4137598473
  H        10.3807817899        2.3133928935       10.2837977206
  H        11.1476490633        2.1013431547        8.8242119941
  C        11.9611604573        3.7743809235        9.9987327854
  S         9.1152720689        7.7319694404        9.3524382788
  C         8.6259093937        6.8463453619       10.7949074076
  H         8.7212695529        4.6200635640       11.3665422798
  C        10.3612235848        6.3499327667        6.2057594641
  H        10.6660941690        2.7080439623        6.5048011830
  C        10.8564677425        4.3293756179        5.2585966257
  H        11.4325658371        4.3969649155       10.6862620588
  H        12.3684259283        4.4999140780        9.2358229527
  C        13.0468725729        2.9475557905       10.5667569487
  C         8.0637371390        7.5176305377       12.0445820605
  C        10.7862343061        5.6779291490        5.0789044540
  H        10.4060357624        7.4050739073        6.0898434561
  C        11.1565641863        3.9009746107        4.0163048126
  H        13.9173538786        3.5414127247       10.6322508741
  H        13.1984958718        2.1820976243        9.8463816220
  C        12.6055420014        2.4076745844       11.9361013222
  C         8.0187931845        8.9145918774       12.3778018549
  C         7.5051403979        6.5924109646       13.1207884157
  C        11.3079490495        6.3269628283        3.8275110574
  C        11.5228266482        4.9745978976        3.1741970415
  S        11.2150999477        2.3476784726        3.2090963740
  H        11.6599131628        2.8647388072       12.2576730488
  H        12.3606091500        1.3682297536       11.9057209682
  C        13.6796772488        2.6926261460       12.9706677125
  N         8.3504649210        9.9340175921       11.5172501737
  C         7.7400100030        9.3464930644       13.6717959395
  C         7.1464128113        7.0803424221       14.4038063552
  H         7.3041100316        5.5744559785       12.8623427416
  C        12.7010598948        7.0139552966        4.1704111603
  C        10.0798209341        7.0646878794        3.1442514367
  C        11.8255082583        4.4925082299        1.9165967082
  C        11.7027596267        3.1465679828        1.7614849342
  H        13.3663455010        3.5842155375       13.4402832580
  H        14.5710812499        2.8140748590       12.4965727451
  C        13.8916894877        1.7455827608       14.1571223967
  S         8.0288065008       11.3528130922       12.2936866515
  N         7.6662578348       10.7851035893       13.7225945247
  C         7.3696909210        8.4989943145       14.7663581174
  H         6.6516047863        6.3921080675       15.1348838712
  H        12.5333338682        7.8909763638        4.7773123394
  H        13.2663498598        7.4391333657        3.3689334229
  C        13.6436443884        6.1661979248        4.9660798835
  H         9.8538421356        7.8415603164        3.8514835449
  H        10.4628996593        7.6594797420        2.3356128642
  C         8.8384735140        6.2646463262        2.7637203593
  H        12.0161986344        5.2144998410        1.1389519223
  C        11.9862053072        2.3056996839        0.4971155294
  H        13.9279752689        0.7438397892       13.8485519539
  H        14.8932767708        1.8312054743       14.6407848773
  C        12.7106546913        1.9029897874       15.2087706053
  C         7.1545589871        9.1313443332       16.0225369512
  H        13.3798648888        6.2904218389        6.0180304374
  H        13.4763404813        5.1338743887        4.7718369486
  C        15.1240400282        6.5154356651        4.8730191451
  H         8.4337969588        5.7730617945        3.6285496134
  H         9.0411161472        5.4206351912        2.0909269521
  C         7.8018134850        7.2396392400        2.1220375423
  C        12.1027613219        0.8935392702        0.4396243786
  C        12.0958122544        3.0616060805       -0.7378756573
  H        12.5454891533        0.9076442356       15.7264506025
  H        11.7578994935        2.1437254567       14.7789471950
  C        12.8701547372        2.9584462529       16.3176148950
  H         7.1517451729       10.2044122337       15.9658012199
  C         6.8929148077        8.6351876997       17.2522803377
  H        15.2932117409        7.6179107659        5.1017122744
  H        15.4867860917        6.3490475248        3.8775091813
  C        16.0620385468        5.6625835395        5.7895858456
  H         7.4941589018        7.9552676535        2.9534136848
  H         8.2322616891        7.7123532496        1.2112647561
  C         6.5490658955        6.5214681484        1.6707487756
  N        11.9590566364       -0.1256563931        1.4792899941
  C        12.4817325582        0.2698596223       -0.7545551733
  C        12.3950953027        2.3729078418       -1.9485648754
  H        11.8003307530        4.0690249371       -0.8327311097
  H        13.9439706040        3.1455558963       16.5810362582
  H        12.2794196024        2.6550696120       17.1285661826
  H        12.7062445616        3.9042578350       15.8756218127
  S         6.6790288487        6.9693900756       17.6794206020
  C         6.7070785801        9.5325274519       18.4030782107
  H        15.5493546855        5.0668563719        6.5613260280
  H        16.6279831805        4.9899325333        5.1231644708
  C        17.0019191369        6.5324234151        6.5431641340
  H         6.1707941235        5.8209273990        2.4035552253
  H         6.8712567174        5.8966643117        0.8441000537
  C         5.5145192550        7.6390354696        1.3439045144
  S        12.1482091575       -1.6328571846        0.8515618664
  N        12.4949517316       -1.1489324880       -0.6690510911
  C        12.7201626104        0.9347293274       -1.9668132693
  H        12.2739295292        2.9957995595       -2.7940645765
  C         6.3607632252        7.4930649912       19.2459981311
  N         6.3838623642        8.7805754151       19.4723817841
  O         6.8301716184       10.7603831709       18.3730211620
  H        17.3383319916        7.1864149816        5.7407751147
  H        16.5148060409        7.1724410910        7.2995024837
  C        18.2201401250        5.7776160221        7.0723370138
  H         5.8744342132        8.3608255118        0.5939471375
  H         4.7477866739        7.1766665843        0.7506986953
  C         4.9512780873        8.4662283584        2.5442341426
  C        12.9092505629        0.1188323985       -3.0765833087
  S         5.9496847600        6.4104596817       20.6067022690
  C         6.2260039360        9.3432110427       20.7703699114
  H        18.0160538425        5.1360850204        7.8683280231
  H        18.4410975991        5.0094042007        6.2694016492
  C        19.5032938530        6.6127787256        7.3388305276
  H         5.6631504848        8.9051840967        3.2489370731
  H         4.3545754927        7.7218423414        3.1116332534
  C         3.9026472897        9.4271042911        2.0921420979
  H        12.5174664613       -0.8596910803       -3.0664920103
  C        13.4996123646        0.3519443505       -4.2858163538
  H         5.3844084639        9.0148665563       21.3483800006
  H         6.0341352941       10.4127473235       20.6351050616
  C         7.5612323144        9.1249775561       21.5480435102
  H        20.1904511049        6.0172189588        8.0095381328
  H        19.3572567402        7.5945070418        7.7956203121
  C        20.3114853270        6.8535792188        6.0982981370
  H         3.2905082542        9.0007573125        1.3339744664
  H         3.2738685465        9.5353838138        2.9427964981
  C         4.3466662957       10.8163579466        1.6461154236
  S        14.0429683741        1.8699212294       -4.7759548737
  C        13.5325133009       -0.7554284713       -5.2559791712
  H         8.4135502794        9.3277879913       20.9005577166
  H         7.6315294412        8.1101310278       21.9443643460
  H         7.6461603628        9.7208506960       22.3949893902
  H        20.6803643002        5.9117246514        5.6905799986
  H        19.6846629040        7.5136823131        5.5167680815
  H        21.1849784573        7.3731478735        6.2884754046
  H         4.1918523101       11.5644497089        2.4174051425
  H         5.4247351241       10.7002049760        1.4410091438
  H         3.8339490418       11.1243181245        0.7106988905
  C        14.4579440393        1.0058653311       -6.2310851792
  N        14.1274459594       -0.2992775175       -6.3252574543
  O        13.1540190106       -1.8846748684       -5.1293638141
  S        15.1308077075        1.8754089174       -7.6523950277
  C        14.2704303048       -1.1090336898       -7.5255084104
  H        14.0416584014       -2.1426110890       -7.2866154328
  H        15.3745069480       -0.9472567028       -7.7922443741
  C        13.2809596390       -0.7250979473       -8.6616359357
  H        13.2110276477       -1.4953127556       -9.5072233991
  H        13.4883343190        0.1691012962       -9.2142733981
  H        12.2854010912       -0.7850749313       -8.2130238300
