352
 i =   105500, time =    52750.000, E =       100.0378117296
  H         9.9839906871        4.3629351671       31.3974816432
  C        10.3805057889        5.2068003143       31.9981107486
  H         9.6067848037        5.9566611747       31.9779572398
  C        11.5375569084        5.7179496438       31.1741929245
  C        10.7952954503        4.8249188926       33.4159909519
  C        11.2608333173        6.3603340038       29.8001945050
  H        12.2805264021        6.3586057843       31.6446984257
  H        12.1764574467        4.8407327454       30.9910423942
  H        10.6340700580        3.7449181366       33.6022140910
  H        11.8292896374        4.9299656002       33.4848590931
  H        10.2847921195        5.4175516683       34.1467511939
  C        10.5828281495        5.3408275785       28.9045946452
  H        12.2352859168        6.7560901936       29.4360240011
  H        10.6111401411        7.2315109719       29.8601890531
  C        10.9463536452        5.5055226752       27.4039955840
  H        10.9569023464        4.3033252510       29.1328173291
  H         9.6211984257        5.2949397890       29.0197639200
  C         9.9939606291        4.7952715371       26.3767136099
  H        11.9652021899        5.1051336794       27.3090603991
  H        10.9160163497        6.6170772707       27.1552261936
  C         8.6497799276        5.5209965296       26.2378616439
  H        10.4158056746        4.7727906261       25.3979409660
  H         9.8412504838        3.7960881625       26.7162910833
  C         7.4927246624        4.8048006822       25.4719301443
  H         8.3161190462        5.8268240899       27.1984528537
  H         8.8717374363        6.4592372559       25.7183592305
  C         7.1667523210        3.4468405437       26.1150866066
  C         7.8624337037        4.1691065621       24.1707339602
  C         6.1980355618        5.6486431082       25.5048231786
  C         7.4050652191        2.3910156065       25.2801461967
  C         6.7361835492        3.0492222286       27.3583099275
  C         7.8009322714        2.8274870305       24.0021749550
  C         8.3011669519        4.8690248711       23.0431363551
  H         6.4324003894        6.5828007181       25.1522675131
  H         5.8800681934        5.9234449165       26.5186394411
  C         5.0585775359        5.1454846180       24.5961120810
  S         6.9160224347        0.8603621411       25.9351838071
  C         6.4822426303        1.7313569008       27.4037040814
  H         6.7224404240        3.7801546924       28.1580569253
  C         8.0676801367        2.3186902796       22.7577207925
  H         8.3569050109        5.9327985036       23.0797068573
  C         8.6586538392        4.3370166751       21.8545606925
  H         5.4518421607        5.2793866685       23.5865744175
  H         4.8852237443        4.0502724923       24.6334809344
  C         3.8280541841        6.1388650509       24.6505820440
  C         6.0836409874        0.9558570387       28.6433001333
  C         8.5103467274        3.0481415468       21.6661794555
  H         7.7744145329        1.2756852991       22.4847728247
  C         9.0207101725        4.8621562951       20.6179573728
  H         3.0916046246        5.9236540297       23.9391182068
  H         4.2757751433        7.1461451634       24.3914721081
  C         3.1239121088        6.1220721926       26.0383529753
  C         6.0112448797       -0.4215292422       28.8576905814
  C         5.4855391052        1.7760623834       29.7187697576
  C         8.9612364860        2.4356356195       20.3979475373
  C         9.1968643492        3.8108622814       19.7508296134
  S         9.6326034880        6.4200158566       19.9683185479
  H         2.0882523580        6.3381616818       25.8407175966
  H         3.5649868564        6.8462747216       26.7723182687
  C         3.1116875517        4.7500741397       26.7555842592
  N         6.3860503799       -1.3391274575       27.9069572145
  C         5.7197489023       -0.9774959087       30.1077216130
  C         5.1250447979        1.2421202039       30.9540268922
  H         5.3904128410        2.7866577589       29.4724177021
  C         7.9394817946        1.6759750955       19.4122780503
  C        10.2949556059        1.7248623536       20.4480318192
  C         9.6954114594        4.2760860303       18.4927145084
  C         9.8580138853        5.6372948679       18.4306079506
  H         2.7833754819        3.9624749139       26.1324838051
  H         4.1413291656        4.5343857609       26.9785382727
  C         2.2262096992        4.7060178844       27.9554791745
  S         6.4160768059       -2.8246804531       28.5914628125
  N         5.9025566141       -2.3761281876       30.0876644160
  C         5.2862362501       -0.2233729903       31.2089110006
  H         4.5905927811        1.8519479060       31.6438768092
  H         7.7393554716        0.7037564360       19.7410548262
  H         8.5842891688        1.5688726109       18.5521251720
  C         6.6002881435        2.4122573517       19.0196274142
  H        10.4921573565        1.3264923801       19.4758137832
  H        10.0356118083        0.8716800523       21.1083723741
  C        11.4057734934        2.5115063850       21.1054306282
  H         9.8432373812        3.6413400776       17.6574585287
  C        10.1269001695        6.4324511632       17.2333348367
  H         1.7210324822        3.7646624895       27.9984428251
  H         1.3684001510        5.4374107446       27.8817771976
  C         3.1529031996        5.0571801904       29.0946023337
  C         5.0083558347       -0.9456251614       32.3945947385
  H         6.8881857140        3.0033648593       18.0495950600
  H         6.4534629429        3.1378467362       19.7916312028
  C         5.4396524205        1.4371647537       18.8175588288
  H        11.0044773951        2.9207215165       22.0667867626
  H        11.6161833492        3.3770535500       20.4592113065
  C        12.6824875052        1.7257893799       21.2073797462
  C        10.2889201951        7.8310353686       17.1413441776
  C        10.3828218947        5.6806999804       15.9945890063
  H         3.7113300801        4.1175262552       29.2681987625
  H         3.9420010599        5.7307346405       28.7780216905
  C         2.5122528067        5.5196907608       30.3824772462
  H         5.2308453088       -2.0307988401       32.3754391787
  C         4.6876644102       -0.6052510712       33.6712632095
  H         5.1008679897        0.9405566779       19.7276849793
  H         5.8292737442        0.5584715461       18.3289372001
  C         4.3260096196        1.8689760610       17.8962544865
  H        12.5893988794        0.8695652110       21.8851110775
  H        12.8304358319        1.2322339330       20.3214535568
  C        13.9246302733        2.6189203372       21.5335094029
  N        10.1757309026        8.6864502892       18.2084718030
  C        10.6445847082        8.4918009304       15.9776492192
  C        10.7664945441        6.3251023458       14.8302311508
  H        10.1332333831        4.6249092255       15.9397543055
  H         2.8726302351        4.9646056206       31.2644380116
  H         2.5824573940        6.5559851274       30.6079883551
  H         1.3713190896        5.4395324040       30.3398745640
  S         4.5008354237        1.0274020510       34.2263199397
  C         4.7841750340       -1.6322507194       34.7719101058
  H         4.3240131020        2.9585339483       17.9063752859
  H         4.6647671596        1.5955133717       16.9286974649
  C         2.8832104837        1.2207277387       17.9104503769
  H        13.6768413681        3.4056605367       22.2726753350
  H        14.3577189985        3.1046979404       20.7058601052
  C        15.1342962316        1.8682516489       22.0914793290
  S        10.4543391455       10.2066145594       17.7417018057
  N        10.8604228069        9.8626257231       16.1643189173
  C        10.8681105644        7.8054073872       14.8010389587
  H        10.8033341461        5.7102476789       13.9032545965
  C         4.4000156974        0.2987462968       35.8324508171
  N         4.5865979393       -1.0699383360       35.9562659041
  O         4.9552972106       -2.8401009019       34.5304176319
  H         2.4312949790        1.1409789184       16.8956514698
  H         2.1755587563        1.8173227868       18.4484339894
  C         2.8003212005       -0.1740360935       18.6388106648
  H        14.9096744649        1.4824502527       23.0919321733
  H        15.4976969867        1.1553970366       21.3468210600
  C        16.3005709228        2.7990905392       22.3071858427
  C        11.0485775657        8.6391394524       13.6292348428
  S         3.8420493625        1.1509015668       37.3309536933
  C         4.5206875108       -1.8289337591       37.2529234969
  H         3.7367451157       -0.6434488751       18.4567436842
  H         2.6170613343        0.1173119402       19.6974805004
  C         1.6555057906       -1.0297979467       18.0712675982
  H        16.1793534861        3.5113565269       23.1423813912
  H        16.4106023069        3.4159328632       21.4200245659
  C        17.6667293125        2.1127027451       22.4969527118
  H        10.8693924221        9.6573050400       13.7652660101
  C        11.4119761458        8.3530091896       12.3492647497
  H         3.7282561114       -1.5317996586       37.9060277084
  H         4.1875286689       -2.8065517558       36.9701709496
  C         5.8686140309       -2.0105451842       37.9255801162
  H         0.7988745169       -0.3717120664       17.7462089212
  H         1.2723332136       -1.6316237605       18.8936979643
  C         2.3776374255       -1.8903712366       17.0458431285
  H        17.6458617207        1.1233736672       21.9938237587
  H        18.5486595359        2.6681633611       22.1607103397
  C        17.7966186118        1.7296681958       24.0174255734
  S        11.7404138281        6.7537702002       11.7298478735
  C        11.7048730547        9.4407026167       11.4359524499
  H         5.9050392190       -1.4147994755       38.7941942323
  H         6.0553004809       -3.0641939935       38.2385593578
  H         6.6344031780       -1.6142612502       37.2936843095
  H         3.2802608817       -2.3316730273       17.4946370599
  H         2.7158844364       -1.2897365576       16.2135790654
  H         1.7736699558       -2.6603616926       16.5429120253
  H        18.8559070352        1.4001437547       24.1351614280
  H        17.2233590040        0.8875067580       24.2626792574
  H        17.5715756177        2.5021427561       24.7263642993
  C        11.9521776661        7.5195135990       10.1733063580
  N        12.1036741427        8.8989112001       10.2713595346
  O        11.5691873556       10.6370490910       11.7583878718
  S        12.5306355799        6.7665010506        8.7122376722
  C        12.3190879410        9.8394914539        9.1427060085
  H        12.9553229057       10.6882246167        9.5639014432
  H        12.9390198067        9.3416927713        8.4498290146
  C        11.0030312711       10.1329589189        8.6274002342
  H        10.9342339336        9.9061544438        7.5532886742
  H        10.3160621987        9.5064467080        9.0675397415
  H        10.6640158504       11.1467980258        8.7845516128
  H         2.9044691175        3.8554830913       12.8255043200
  C         2.7275275392        2.8040012841       12.7454659225
  H         1.8136322811        2.8249097798       12.1922726448
  C         3.8009537534        2.0008678722       12.0005525646
  C         2.5115825715        2.0863390790       14.2100840875
  C         3.6509142142        1.9733675308       10.4576726174
  H         3.7603793844        0.9695306769       12.3036110639
  H         4.7270875356        2.2784669384       12.4069202401
  H         3.5131729472        1.8104699302       14.6322813556
  H         1.9501180544        1.1221099839       14.2210587437
  H         1.9404810137        2.6541592301       14.9811656213
  C         4.7899098512        1.1344590475        9.8828911525
  H         2.6836699879        1.6329698435       10.1674008451
  H         3.8289853153        2.9967343564       10.0180194601
  C         5.3390867253        1.6876559118        8.4845030772
  H         4.4088214612        0.0834854921        9.8462195036
  H         5.5486069120        1.0354277407       10.7239330743
  C         6.5170531255        2.6711158208        8.4794866706
  H         4.4097668057        2.0822006461        8.0233797306
  H         5.6443212205        0.8795251981        7.8508871781
  C         7.8109343081        1.9522778255        8.7358960726
  H         6.6405738445        3.2514284649        7.5529689336
  H         6.2164382497        3.4246248235        9.2491230757
  C         9.0050853254        2.8774820589        8.9852351157
  H         8.0425281229        1.2987919940        7.8728068071
  H         7.7610402082        1.3152473775        9.5789361082
  C         8.6442756151        4.2433247029        9.7049106812
  C         9.4026641265        3.6493407190        7.8072410477
  C        10.2816577297        2.2917502648        9.6378781889
  C         8.7381729065        5.4056579915        8.8680771444
  C         8.2267302620        4.6102707108       11.0064325877
  C         9.3548041420        4.9991147960        7.7083478925
  C         9.9524226658        3.0477339078        6.6880680954
  H         9.9641897042        1.7954176811       10.5806361921
  H        10.6995169215        1.5108610361        8.9888566309
  C        11.4739971465        3.2803610422       10.0436932010
  S         8.3435600546        6.8700731813        9.5676740925
  C         8.0682447825        5.9816142753       11.0822622159
  H         8.2324222628        3.8741309162       11.7684408117
  C         9.8021174454        5.6535720230        6.6021935288
  H        10.0131088624        1.9528278553        6.7132095582
  C        10.4562495519        3.6822838221        5.5955207803
  H        11.0950045880        4.2569358066       10.3403424475
  H        12.0040983829        3.4412896319        9.1563459857
  C        12.4923627356        2.7208662477       11.0558807808
  C         7.8312640525        6.7037755279       12.3782188984
  C        10.3724910776        5.0419273838        5.4476837884
  H         9.7873044916        6.8069192049        6.7096344095
  C        10.9869369553        3.2484886335        4.4286475185
  H        13.4457583486        3.2577997616       11.0685190395
  H        12.7106884882        1.6914537427       10.7729708061
  C        11.8854456908        2.8246526135       12.4586685896
  C         7.8866007687        8.1027042846       12.5820368663
  C         7.6229958321        5.8800511065       13.6410861136
  C        10.9209545474        5.7081054873        4.2157911432
  C        11.1662983995        4.3598527292        3.5658708529
  S        11.2678730774        1.7276776178        3.6224285645
  H        11.6497922947        3.8709480904       12.6737748307
  H        10.9947772378        2.2210871341       12.5726458409
  C        12.9030828905        2.4738096238       13.5214395920
  N         8.0519238127        9.0877986274       11.5681099951
  C         7.7153999710        8.6868022114       13.8403403088
  C         7.4108595986        6.5115998080       14.8551070426
  H         7.5169809736        4.8175934238       13.5911893529
  C        12.1917870840        6.5237756459        4.4924116647
  C         9.7383569733        6.4773279977        3.5439848352
  C        11.6816500101        3.9558356652        2.2912013590
  C        11.6356594261        2.6230940378        2.1021009295
  H        13.7865976900        3.1588479506       13.4898605259
  H        13.1948049213        1.4100395921       13.5023904717
  C        12.3740164290        2.7150333668       14.8960236566
  S         8.0771088594       10.6367468017       12.2410471144
  N         7.9188599835       10.1031233593       13.8117459904
  C         7.3905211204        7.9844380129       15.0090682148
  H         6.9943179827        5.8576118328       15.6810799976
  H        12.0038859728        7.3702855811        5.1940423366
  H        12.3752358200        6.9056515101        3.4664407075
  C        13.4874283529        5.7821957023        4.8549434191
  H         9.3730131915        7.1647489108        4.2704060170
  H        10.0837563841        7.1629514778        2.7550638700
  C         8.5765450539        5.6522091916        2.9122663523
  H        11.7823469508        4.7153858170        1.5190112789
  C        11.9987113972        1.9391832371        0.7855889069
  H        11.6052007648        3.4833880432       14.8220289143
  H        11.7307870038        1.8790242819       15.2056407439
  C        13.4054760862        2.8059729507       16.0278686311
  C         7.3032914753        8.6773972769       16.2064107139
  H        13.4398681917        5.4014621639        5.8947529787
  H        13.6717734956        5.0206044940        4.2101277241
  C        14.5989769937        6.7763240214        4.7877661537
  H         8.1325448962        4.9662779544        3.6047514695
  H         9.0042454727        5.0100609350        2.1522532120
  C         7.5601828896        6.5794140543        2.1756202583
  C        12.0923632114        0.5188277290        0.6351368764
  C        12.1695222526        2.7225716576       -0.4920679877
  H        14.2214208901        3.5003368740       16.0154492957
  H        13.9759890056        1.8915969248       15.8846146938
  C        12.7743932404        2.9062860581       17.4376833784
  H         7.4644319932        9.7273915141       16.1244974277
  C         6.8737471729        8.2917960233       17.4605548063
  H        14.3519499069        7.2702186390        5.7308092472
  H        14.5888559935        7.4124142100        3.9273857976
  C        15.9825235067        6.2717385167        5.0379503828
  H         7.0050014202        7.1549453364        2.9291916140
  H         7.9866047591        7.3767154941        1.5476786752
  C         6.6350699300        5.7862781802        1.2212646088
  N        11.8772669216       -0.3933632917        1.6531397957
  C        12.2279291680       -0.1037998093       -0.5864540770
  C        12.4871055685        2.0674756473       -1.6847335048
  H        12.2370457632        3.8298768835       -0.5012886032
  H        12.1804053321        2.0359016803       17.7211921700
  H        12.2537799201        3.8266843711       17.6119213084
  H        13.6042235827        2.8368692302       18.1751915263
  S         6.4664224760        6.7276459640       18.0752746456
  C         6.9200195801        9.3293802158       18.5414126992
  H        16.1606165668        5.6135193675        4.2180846235
  H        16.6374116436        7.0769912887        5.0131882586
  C        16.1663657542        5.6147191205        6.3961631397
  H         6.8774309053        4.7131030274        1.4572320989
  H         6.8712454989        5.9575612090        0.2252802858
  C         5.1205649992        6.1143375973        1.3594464007
  S        11.9872009703       -1.8950232356        1.0019199548
  N        12.2628260263       -1.4791256789       -0.5407149976
  C        12.4616426184        0.6106516610       -1.7945113503
  H        12.6005320039        2.6953690754       -2.5364815185
  C         6.3809156325        7.3986340854       19.6741190796
  N         6.5699880671        8.7534240098       19.7674091735
  O         7.0478521191       10.5203949181       18.2800666375
  H        15.6749269876        6.3229713058        7.1233795829
  H        15.5082068388        4.7196155632        6.4860703139
  C        17.6274954713        5.2460218845        6.8668078576
  H         4.6400230172        5.3827437747        0.7203271691
  H         4.8681786401        5.9172648040        2.3724224845
  C         4.6701844082        7.5433099836        1.0099774351
  C        12.8173659851       -0.1092309741       -2.9641435095
  S         5.8115896060        6.5394134346       21.1734630804
  C         6.5989312267        9.4934945944       20.9621203711
  H        17.6047266021        5.0036373090        7.9624687794
  H        18.0152317069        4.2732759654        6.5577333945
  C        18.7441713315        6.2739378944        6.5164822788
  H         4.3626569224        7.5282529158        0.0065700862
  H         5.5425655481        8.1493785655        1.0575153747
  C         3.5534260862        8.2374973088        1.8886507758
  H        12.6323291396       -1.1993556108       -2.9261767440
  C        13.2778233507        0.2996269905       -4.1962322475
  H         5.9035718663        9.0988198435       21.6370777953
  H         6.2093391821       10.4528641727       20.7118736694
  C         7.9878991154        9.5658406955       21.6638559048
  H        18.4284606795        7.3038071841        6.4027339243
  H        19.0693944173        6.1062558534        5.5052778295
  C        19.8919599410        6.2245540077        7.5132314820
  H         3.1563746085        9.0785055579        1.3366043187
  H         2.7262183227        7.5734732800        2.1809515837
  C         4.1108659435        8.7498959957        3.1912194197
  S        13.9120514082        1.8429246725       -4.5402286745
  C        13.2977386705       -0.7880489911       -5.2472656676
  H         8.1429760081       10.4558299513       22.3336800820
  H         8.8492445220        9.7145341303       20.9867917146
  H         8.0690731897        8.7420750896       22.2920706727
  H        20.5409791850        7.1028698943        7.3798626287
  H        19.5690276473        6.2007300931        8.5408147585
  H        20.6251920836        5.3485541886        7.2603576477
  H         5.1637807515        8.3305952130        3.4470863421
  H         4.2834556506        9.8018050505        3.0916229547
  H         3.4353274903        8.4453153843        3.9884496290
  C        14.2125742256        1.0696737722       -6.1566245282
  N        13.9152899601       -0.2865569250       -6.2780768324
  O        12.7930536125       -1.9070571648       -5.0805863306
  S        14.9528673105        1.7738318124       -7.6602397084
  C        13.9983177062       -1.1120090079       -7.5083064038
  H        13.9625186405       -2.1599257155       -7.1760821270
  H        15.0000005646       -0.9798253253       -7.8372998093
  C        12.8716615419       -0.9104942301       -8.4283199592
  H        13.0151468190       -0.9354787912       -9.5120256747
  H        12.4263031487        0.0766906823       -8.1238475292
  H        11.9850348660       -1.4652927346       -8.1918854138
