352
 i =   115400, time =    57700.000, E =       100.0976754215
  H         9.7581456236        4.2743624008       31.2372864068
  C         9.7736496518        5.2185336176       31.7388441806
  H         8.7878824541        5.7168942157       31.8337853747
  C        10.7987630358        6.1025516180       31.1572076146
  C        10.2669270520        4.8848286427       33.1190335171
  C        10.6283180363        6.3569419664       29.6614557637
  H        10.9006414656        7.0659685915       31.6683633959
  H        11.7727203784        5.7001921916       31.3128514268
  H        10.5400134538        5.7188806024       33.7286145374
  H         9.5892270954        4.2803942392       33.6747082606
  H        11.2635548223        4.4105662755       33.0461269405
  C         9.9486156707        5.2585725301       28.8344956209
  H        11.5797241095        6.7466184124       29.2202089082
  H         9.9333258761        7.1888596797       29.6169863845
  C         9.9971724077        5.7272233970       27.3511688565
  H        10.3574912797        4.2474409394       28.9515724494
  H         8.9720825137        4.9874098984       29.0621869330
  C         9.0306771955        4.9792905618       26.5707700000
  H        11.0740315691        5.7889119127       26.9388583226
  H         9.7781419993        6.8311960160       27.3505187521
  C         7.8863925670        5.9217646423       26.2886824453
  H         9.4387573282        4.6694535209       25.6259488391
  H         8.6817523189        4.0264356149       27.0226039298
  C         6.6459100356        5.2409741447       25.6320277618
  H         7.4934637686        6.2614413116       27.2730008370
  H         8.1576390894        6.7295555115       25.6309658320
  C         6.2900161741        3.8427759334       26.2961828877
  C         7.1704960908        4.5621094189       24.3561329888
  C         5.3349194513        6.1319320488       25.4425475802
  C         6.6965774260        2.7564144327       25.4941514783
  C         5.7510828535        3.4139678385       27.5547996259
  C         7.1670669105        3.1583193794       24.2728449547
  C         7.5884017962        5.1774710858       23.2121823699
  H         5.7270830627        6.9484661322       24.8005243071
  H         5.0089673155        6.6012645215       26.3696412860
  C         4.1606635127        5.4419345221       24.7429920441
  S         6.3530491928        1.2258160472       26.1943199829
  C         5.7545965430        2.0249629751       27.6435035187
  H         5.3893152345        4.1212345351       28.2591062086
  C         7.6371268872        2.5241378520       23.1351596316
  H         7.7865491412        6.1977407660       23.2533638548
  C         8.0010444187        4.5103139309       22.0350708445
  H         4.5191366803        5.3117398025       23.6870509877
  H         4.0103439510        4.4809407615       25.0989057504
  C         2.8509251941        6.1616358570       24.9668985896
  C         5.3663440897        1.2610778064       28.8443054293
  C         8.0270068766        3.1285362177       21.9665107951
  H         7.6282403205        1.4705005845       23.1722869657
  C         8.5419703981        4.8875902097       20.8689707195
  H         2.1407844325        5.5745306894       24.3457816961
  H         2.8840999488        7.1416878816       24.5372507674
  C         2.4710157215        6.2062102969       26.4526349355
  C         5.4041773723       -0.1381348726       29.0161912402
  C         5.0530438451        2.0491609060       30.0799503036
  C         8.5559619259        2.4823107563       20.7258314811
  C         8.9222135253        3.7719823989       20.1047639504
  S         8.8162338206        6.4400146671       20.1778419018
  H         1.5942031694        6.8909147805       26.4514094028
  H         3.1995782082        6.7513623703       26.9943355606
  C         2.1275764598        4.8434479805       27.1075509920
  N         5.6957281756       -1.0015950671       27.9962503139
  C         5.2275511184       -0.7804217161       30.2294281953
  C         4.8201397620        1.4476311061       31.2746631433
  H         4.9484341487        3.0672305064       30.0242871789
  C         7.4241983749        1.8259010218       19.8495452134
  C         9.7964307302        1.5832508182       21.0162128995
  C         9.5492529088        4.2191922639       18.9702601129
  C         9.5066794502        5.5910528332       18.8036999439
  H         1.8917097676        4.1541339643       26.3416655566
  H         3.0130183408        4.3957560970       27.5023340066
  C         1.0025116004        4.9857964437       28.2137830993
  S         5.6834206421       -2.5093743045       28.6323543301
  N         5.2635839687       -2.1122943837       30.1682798552
  C         4.8324674467        0.0064355216       31.4054514767
  H         4.6294051437        2.1670074983       32.0400365395
  H         6.8510134219        1.1082504780       20.5076242634
  H         7.7153267732        1.2837009947       18.9748175751
  C         6.4211216797        2.8042094532       19.4323488514
  H         9.7441846959        0.9383251920       20.1060216588
  H         9.5571332794        0.8778093690       21.8011963418
  C        11.0441947073        2.3501219723       21.3888380475
  H         9.7434071803        3.4768933998       18.2152288084
  C         9.8135137841        6.3681040622       17.6001750603
  H         0.6043817650        4.0088323990       28.3805673572
  H         0.1890741050        5.5644731383       27.8172115347
  C         1.3604340242        5.5536337153       29.5763631472
  C         4.5989939167       -0.6778696314       32.6572625011
  H         6.7533773561        3.7291613229       18.9207556676
  H         6.0115778597        3.2648745572       20.3636676931
  C         5.2996199815        1.9908564679       18.6924611787
  H        10.7615023752        3.2043897362       22.0383783840
  H        11.5868375220        2.7292546117       20.4620740702
  C        12.0219659761        1.5127739092       22.2182447642
  C         9.7668566062        7.7609992934       17.4605270087
  C        10.1464200116        5.5710587100       16.3697320915
  H         1.1353840144        6.6286669147       29.4967940030
  H         0.7407460149        5.1848655931       30.4240081491
  C         2.8161024072        5.3388887021       30.0966581950
  H         4.7287053937       -1.7488135504       32.5055232536
  C         4.3561996679       -0.3111062375       33.9219357153
  H         4.7066148501        1.3461067986       19.3909679242
  H         5.7657298870        1.1618289383       18.1954635455
  C         4.4309204069        2.7372216197       17.6454698565
  H        11.5833981158        0.8281323268       22.9279492566
  H        12.5114318875        1.0383225957       21.4481625883
  C        13.0724018905        2.4001692228       22.8577931321
  N         9.4456022622        8.7877072929       18.4163394826
  C        10.0946318933        8.3284694422       16.2223619846
  C        10.3110276770        6.2124815285       15.1164941879
  H        10.1227644093        4.5069357849       16.3985600592
  H         2.7956123991        6.0318973821       30.9973658686
  H         3.0404980412        4.3140962893       30.4230300086
  H         3.6158110629        5.7154360909       29.4421790138
  S         4.0545636767        1.2725586072       34.4977714155
  C         4.3680733704       -1.3398063215       34.9986883061
  H         4.4014743814        3.8067155450       17.8222020184
  H         4.8788382051        2.7825052181       16.6184527146
  C         3.0227510439        2.1803425720       17.4198771431
  H        12.7953110393        2.5500728664       23.9194753173
  H        13.1430116988        3.3906981799       22.4333538461
  C        14.4271663030        1.7670833230       22.7810352802
  S         9.4940697759       10.2041730934       17.7204986047
  N         9.8783590587        9.6811357263       16.2542572614
  C        10.5379378367        7.6784810015       15.0816669479
  H        10.3540389237        5.5348197680       14.2424820787
  C         3.7335270638        0.6038200605       36.0923033694
  N         3.9188584359       -0.7637194792       36.1369283570
  O         4.4443292264       -2.5552243411       34.8388556683
  H         2.6041332057        2.7112869481       16.5719070460
  H         2.4385374954        2.5296991313       18.3008083450
  C         2.9421028293        0.6710373566       17.1911165337
  H        14.8566066993        1.5846518494       23.7769460768
  H        14.3601648022        0.7412749112       22.4628021142
  C        15.4185967451        2.4588412072       21.7868713602
  C        10.7544220286        8.4242641219       13.8815556687
  S         3.3487497295        1.4166858078       37.6104773712
  C         3.9496842004       -1.4475373989       37.4327142154
  H         2.3968748885        0.5409770499       16.2886368525
  H         3.9350912257        0.2742584247       17.0728429097
  C         2.1770799984        0.0455844639       18.3536294055
  H        15.4688840097        3.5298727942       22.1301620525
  H        14.9200082945        2.5172483464       20.7996142034
  C        16.7671332398        1.7643954619       21.6497135899
  H        10.8151098482        9.4539269025       14.0292360224
  C        11.2245278639        8.1007784374       12.6843242549
  H         3.1852595219       -1.0006196003       38.0715550816
  H         3.6122910188       -2.4707217023       37.4305813324
  C         5.3546319113       -1.4715149050       38.0597702277
  H         1.2957272365        0.6771364065       18.6231301482
  H         2.8017009684        0.0145689673       19.2129536655
  C         1.6838102621       -1.3651891197       18.0091106803
  H        16.4718932017        0.8005528132       21.2150586309
  H        17.3399086274        2.2661423862       20.9542770610
  C        17.6586089044        1.4636719812       22.7861707291
  S        11.6861128470        6.5288428099       12.0639511118
  C        11.4118357358        9.2187765211       11.7368567991
  H         5.3163515842       -2.2261337575       38.8874335492
  H         6.1265400425       -1.6979202552       37.4115703862
  H         5.6252587983       -0.5545363916       38.6203831924
  H         0.8762854890       -1.1937628372       17.3575701806
  H         1.3360349199       -2.0225081227       18.8096715729
  H         2.4714756573       -1.9000394905       17.4792940705
  H        17.2580088209        0.6143615636       23.3265689996
  H        17.7421119437        2.2582300876       23.4419530920
  H        18.6491135163        1.1949650501       22.4083746111
  C        12.0464288352        7.4192852217       10.6043540011
  N        11.9068425198        8.7457509322       10.6155243167
  O        11.1445274570       10.3889808084       11.8799970443
  S        12.9854881633        6.6317681528        9.2920509602
  C        12.0999254920        9.5988340963        9.5062772613
  H        12.3595215180       10.6666669623        9.7880939597
  H        12.9754506174        9.3133375411        8.9112520875
  C        10.8335361365        9.6205529309        8.6454317161
  H         9.9013584241        9.9860227596        9.0667315755
  H        10.9594399289       10.2807089808        7.7762116641
  H        10.5171576756        8.6736293813        8.3027928607
  H         3.0583068667        3.5208250045       12.9436973824
  C         2.8300373785        2.4907048486       12.7067059815
  H         2.0043913033        2.2844485321       13.3971202144
  C         2.5676604823        2.3063826137       11.1685187268
  C         4.0295880266        1.7484424151       13.2984146117
  C         3.9207419381        2.4036103622       10.3773680423
  H         1.8628649216        3.0553100575       10.8575719389
  H         2.0778661921        1.3420157237       10.9701882644
  H         4.2734688726        0.9740198297       12.5856849422
  H         3.6512579857        1.4657650850       14.2923243140
  H         4.8617465935        2.4313777774       13.3932139634
  C         4.3435502735        1.1756047727        9.5181702807
  H         3.6633149909        3.2192276385        9.6940874725
  H         4.8005262040        2.7470956152       10.9798400061
  C         5.0468821050        1.5880066399        8.1627600443
  H         3.3912749449        0.7172428378        9.2322437560
  H         4.8734312474        0.4198404275       10.0455642590
  C         6.2571562943        2.5157423569        8.3787661033
  H         4.2866219556        2.1355809985        7.5679548794
  H         5.2206451499        0.7534458955        7.4993728686
  C         7.3869407568        1.9098998238        9.1238448746
  H         6.6428966858        2.8289736983        7.4153634898
  H         5.9371268173        3.4672557134        8.8859008589
  C         8.7007031382        2.6678818317        9.2900820693
  H         7.6752533704        1.0215142531        8.6352708947
  H         7.2216893959        1.8101365160       10.1780858016
  C         8.4413231843        4.0338072615       10.0030345164
  C         9.2029213319        3.3868496896        8.0407414129
  C         9.8279930763        1.9370882350       10.0315630296
  C         8.8241393260        5.0980261416        9.2067991644
  C         8.0184623187        4.3993516806       11.3115058513
  C         9.2462100876        4.7411580019        7.9317543817
  C         9.7876974588        2.7838115665        6.9383533878
  H         9.4875568581        1.4920165842       11.0183358727
  H        10.1833661432        1.0957633681        9.4610154873
  C        11.1899141823        2.6793129217       10.2181166374
  S         8.6271974948        6.5841892883        9.9910688744
  C         7.9861093937        5.7551133732       11.3747908491
  H         7.7820176412        3.7513626068       12.0718302063
  C         9.7531627601        5.3318302641        6.8215397961
  H         9.7391350795        1.6842067012        7.0266496972
  C        10.2001512456        3.3671680674        5.7728444960
  H        11.0614966232        3.7256966047       10.4990995720
  H        11.6984079886        2.7380253641        9.2277077780
  C        12.1130077273        2.1033509905       11.3097588679
  C         7.5084612138        6.5620626581       12.5376859765
  C        10.2434026294        4.6786826185        5.6756620903
  H         9.7408685261        6.3811083036        6.7508790931
  C        10.6893833930        2.8832111562        4.5604530778
  H        13.1000775731        2.1961867573       10.9267764596
  H        11.8360055288        1.0473633160       11.4274313348
  C        11.7948787547        2.7948961586       12.6181544529
  C         7.5198171198        7.9967500709       12.6619390061
  C         7.0520966820        5.8243747406       13.7360529945
  C        10.6889040131        5.3650584586        4.3981453117
  C        10.9417448745        3.9277326387        3.7091444825
  S        10.8679124908        1.3931308117        3.7670619160
  H        12.0103775477        3.8678869479       12.6343651915
  H        10.7842739219        2.8122401180       12.8828509962
  C        12.4790844536        2.0750231491       13.7546531011
  N         7.8768644527        8.8483230714       11.6512577005
  C         7.1611820904        8.6867889307       13.8101112350
  C         6.8903483123        6.4969064726       14.9255813017
  H         6.8739172905        4.7600570616       13.7400363181
  C        11.9552407979        6.2792383712        4.5383759687
  C         9.5102749636        6.2084647360        3.8026424046
  C        11.4345355781        3.5182225683        2.4085247502
  C        11.3712315449        2.1640935477        2.2996002951
  H        13.4952852353        2.3643186045       13.6625571882
  H        12.2685912815        1.0329196280       13.6798718444
  C        12.1011984045        2.6460045564       15.1180689715
  S         7.7321222738       10.3860353280       12.1760448444
  N         7.2463033168       10.0315441184       13.7337379293
  C         6.9086965715        7.9810048477       14.9794608687
  H         6.6079988242        5.9057845245       15.7757785295
  H        11.6409397501        7.1757341096        5.0402931314
  H        12.3534961489        6.6894359545        3.5556437219
  C        13.0694567044        5.6877209203        5.3277773130
  H         9.2513607048        7.0393772136        4.4671716512
  H         9.9227205923        6.7432788870        2.9515314063
  C         8.2637815504        5.4607635182        3.4239782587
  H        11.5650898172        4.2506090371        1.6962503053
  C        11.7653166566        1.4105273540        1.0853618240
  H        12.0725250107        3.7346520580       15.1456204981
  H        11.1542081631        2.2950282994       15.3679785711
  C        13.0754227855        1.9854330827       16.1460225286
  C         6.6256319631        8.7145611762       16.2016875013
  H        12.8888634189        5.7659472936        6.3668875352
  H        13.2708306325        4.6329505729        5.1406666940
  C        14.3274519798        6.3956521243        4.9424399302
  H         8.0282177822        4.7226970319        4.2167201663
  H         8.4898836063        4.8466275687        2.5802060217
  C         7.1030150901        6.3114493396        2.9522600928
  C        11.7330987808        0.0052413256        0.9311350278
  C        11.9998868375        2.1208700222       -0.2164051910
  H        14.1512345860        2.1536845241       15.9810620535
  H        12.9828286409        0.9185058842       16.0685838657
  C        12.7371032114        2.4710493903       17.5861283201
  H         6.6965443641        9.8060161497       16.1370364200
  C         6.4159927666        8.3685714735       17.5196452889
  H        14.0277585000        7.4340520170        4.9215456855
  H        14.8240418127        6.0957840976        3.9822032555
  C        15.4534102844        6.1714034466        5.9651449063
  H         6.1869604311        5.7089917391        3.0232465241
  H         6.9106884860        7.1397623808        3.6785614800
  C         7.2684411724        6.9395879468        1.5969634348
  N        11.5998799809       -0.8944605062        2.0088286132
  C        11.9695721234       -0.7120878160       -0.2918636258
  C        12.2576258288        1.4782878524       -1.4448162708
  H        11.9012428604        3.1932227986       -0.2073318464
  H        13.4777145650        2.0897388124       18.2152751953
  H        11.7851434965        2.2011306549       18.0038146150
  H        12.8195367932        3.5395277131       17.7127280673
  S         6.3813531035        6.7703298805       18.2283608250
  C         6.2722427611        9.4746601835       18.4516030470
  H        15.8711468922        7.1712391264        6.1004886523
  H        15.0618693570        5.9180815367        6.9090304153
  C        16.5939362107        5.2357135927        5.4229735179
  H         7.7352911987        6.1482292733        1.0134810064
  H         7.8527822984        7.8717550800        1.7136839329
  C         5.8043396039        7.2429018322        1.1319023176
  S        11.4998058769       -2.4147301235        1.3760478803
  N        11.7803397670       -2.0923018886       -0.1984213535
  C        12.2657726259       -0.0328415629       -1.4951988164
  H        12.4026178511        2.1647894400       -2.2837001328
  C         5.9936190488        7.5892431259       19.7397393882
  N         5.9986416186        8.9528329394       19.7107664147
  O         6.3361288055       10.6881930572       18.2391263075
  H        16.2024478478        4.5015704950        4.6652733595
  H        17.2730438234        5.8384720440        4.8169123943
  C        17.3928395285        4.6025896003        6.6073710142
  H         5.9411759799        7.7571161119        0.1903323976
  H         5.2455939138        6.3417117721        0.9020271381
  C         5.0660383800        8.2001843470        2.0846050462
  C        12.6393099103       -0.8584525213       -2.5663675330
  S         5.6306492405        6.8000795105       21.2901343674
  C         5.8635346722        9.7468921848       20.9139213132
  H        16.6920690596        4.1604195101        7.3349289008
  H        18.0356119418        3.8101206416        6.3254232235
  C        18.2886105887        5.5410653654        7.3830594720
  H         5.6595706353        8.7024386866        2.7581161859
  H         4.4514315554        7.5894188214        2.7794987022
  C         4.2394035798        9.2967213033        1.3244267106
  H        12.3237379692       -1.8397521762       -2.4460807487
  C        13.2374727072       -0.4637212683       -3.7587484633
  H         5.1526282640        9.2892933357       21.5628401307
  H         5.4656650319       10.7285722509       20.6612582644
  C         7.2467325746       10.0308306927       21.5250990278
  H        18.5203186634        5.0319275495        8.3451021499
  H        17.6590333869        6.4492758304        7.4724559487
  C        19.6592164277        5.7047645516        6.6058704381
  H         4.7084517974       10.2250317414        1.1097948669
  H         3.9265925332        8.8916883567        0.3403896673
  C         2.9945596342        9.5998323185        2.1877030703
  S        13.9488844706        0.9980899181       -4.2127424906
  C        13.3370297160       -1.5715925524       -4.7034784409
  H         7.9147055400       10.6413192003       20.8770387400
  H         7.7129350010        9.2015108292       21.9889039475
  H         6.9177532259       10.6875836355       22.3214114584
  H        19.6572243535        6.1432524846        5.6006888246
  H        20.4229937404        6.2102346641        7.1478018690
  H        20.0070842193        4.7594614967        6.4717145909
  H         2.1754299530        8.9328137599        2.0197476143
  H         3.2983174387        9.5184306045        3.2166141797
  H         2.8000756461       10.6824821962        2.0361552151
  C        14.2922479467        0.1790397611       -5.6638190415
  N        14.0270111925       -1.1086803831       -5.7495750298
  O        12.9580561441       -2.7478604280       -4.6525548223
  S        14.7345135060        0.9304623554       -7.2027651418
  C        14.2047736687       -1.9387415801       -6.9510664828
  H        14.3499076501       -2.9503723525       -6.6518751536
  H        15.0721136639       -1.6137534502       -7.3813639807
  C        13.0962627755       -1.6258425834       -7.9667276121
  H        13.2646988540       -0.6040400595       -8.4055256948
  H        12.1647059825       -1.6111196657       -7.5155084350
  H        12.9848177096       -2.3390387011       -8.7260493823
