352
 i =    13100, time =     6550.000, E =       123.8011727739
  H        11.3644262747        5.0274538878       32.4159036723
  C        10.6547551365        5.8223944732       32.6051475008
  H        10.0780243137        5.4530350220       33.4475298869
  C         9.8161581921        6.1848709146       31.3066982157
  C        11.6834799511        6.9651503243       32.8773005983
  C        10.5591839272        5.7437332701       30.0126938950
  H         8.8469476091        5.8160915205       31.4384988663
  H         9.6875397646        7.2733773907       31.0862078672
  H        12.4212717665        6.6083394213       33.5582393053
  H        12.1959464131        7.3555459804       32.0331786555
  H        11.1594316128        7.8148750672       33.3588863106
  C         9.5593512451        5.6899454740       28.9032238281
  H        11.0312299467        4.7559016507       30.1535076592
  H        11.4041903346        6.3761459715       29.7732973828
  C        10.2537822488        5.5914648017       27.6216385399
  H         9.0204403380        4.8863840443       29.0074846105
  H         8.8791713369        6.5871669474       28.8401751645
  C         9.3379581508        5.1766976351       26.3980630020
  H        11.1253020374        4.9926847866       27.5110930631
  H        10.6205237939        6.5660521617       27.3363858795
  C         8.0076055635        5.9341449742       26.2255026590
  H         9.9599325483        5.0236950579       25.5144601459
  H         9.2129301607        4.1368963475       26.7047873232
  C         6.9769360139        5.0972167090       25.5257922495
  H         7.5638073855        6.1619830276       27.1402131892
  H         8.1623797761        6.8129456310       25.6733720116
  C         6.6409012229        3.7295820297       26.1942845564
  C         7.3968858855        4.4005614040       24.3423282435
  C         5.7281797093        6.0014221955       25.3226520047
  C         6.7597916692        2.6636300525       25.3414560481
  C         5.9580548061        3.3709939965       27.3646622194
  C         7.2648356278        3.0683889530       24.1750058179
  C         7.9282782169        5.0528594570       23.1927568770
  H         5.8253686687        6.7456391750       24.5190370519
  H         5.3503502234        6.3297682883       26.2960584627
  C         4.5210731488        5.2354519485       24.7297155696
  S         6.3622278141        1.2071960821       26.0839952661
  C         5.8642766963        2.0521480903       27.4942431048
  H         5.7159049357        4.0658633377       28.1195143146
  C         7.7305540671        2.4557852856       23.0685167008
  H         7.9558081886        6.1608290197       23.2740436545
  C         8.2502253455        4.4746777880       22.0279336369
  H         4.7517150416        4.8041673788       23.8236435196
  H         4.2298588413        4.3781343355       25.3901449172
  C         3.2508919125        6.0889435151       24.4323387796
  C         5.5110123317        1.3128296127       28.7224941055
  C         8.2682664857        3.1285091270       21.9131217628
  H         7.8323779330        1.4058960136       23.0993439549
  C         8.6582344830        4.9221631344       20.8346308491
  H         2.5276304470        5.6750718857       23.7820002262
  H         3.6849157379        6.9827329613       23.8747568758
  C         2.5227638449        6.5885875271       25.6328447141
  C         5.7464307967       -0.0718527414       28.9924004457
  C         4.8406807015        2.0954625772       29.7862065835
  C         8.7726650653        2.5586606762       20.6136817912
  C         9.0559824047        3.8675309228       19.9867596791
  S         8.9564319946        6.4964095900       20.1441303751
  H         1.6037351931        7.2677395209       25.3388269115
  H         3.0763044109        7.1972403075       26.3500036075
  C         2.1141047188        5.5153560135       26.5098245256
  N         6.1450586557       -1.0530019859       28.0593649677
  C         5.5736928821       -0.5885119230       30.2495790865
  C         4.7369999366        1.5244166509       31.0626815474
  H         4.3963244224        3.0362786404       29.5188470650
  C         7.7148387228        1.7455192683       19.8558381195
  C        10.1164445288        1.8300575622       20.9619969309
  C         9.4289039743        4.3788143276       18.7697997668
  C         9.5288068106        5.7645594068       18.7216180451
  H         1.7114617639        4.6158409542       25.9503375077
  H         2.8425452626        5.0536190734       27.2326194741
  C         1.0844401907        5.9506793598       27.5636003053
  S         6.1004318096       -2.5085272690       28.7458396615
  N         5.8750987253       -1.9571709474       30.2791241094
  C         5.1685566994        0.1271033638       31.4325079227
  H         4.3097713491        2.0888100831       31.8253960423
  H         7.3776694985        0.9877479722       20.5937559590
  H         8.1589933634        1.3353445598       18.8578032409
  C         6.4951092848        2.5364199914       19.4918947819
  H        10.2972243884        0.9183617236       20.3576967956
  H         9.9092180792        1.4618920734       22.0097255401
  C        11.2861464812        2.8581662952       21.1360951713
  H         9.6705977655        3.7722117452       17.9964368084
  C         9.7346069317        6.5774907779       17.5021992069
  H         0.1486124134        6.1486956033       26.9941627784
  H         1.6357179470        6.7616409479       28.0631986912
  C         0.8558871758        4.9299167544       28.7357447353
  C         4.9004431497       -0.5530139765       32.6488268235
  H         6.6966920059        3.1147265527       18.6307107069
  H         6.1133493757        3.3472784973       20.1815118104
  C         5.3107640688        1.6473836484       18.9824086060
  H        11.0106049451        3.4817412381       21.9525336171
  H        11.5474782550        3.4237114036       20.2246163442
  C        12.4123498072        2.0833383049       21.7344868664
  C         9.9225499870        7.9864249886       17.4638455035
  C         9.8765256213        5.9060219212       16.1099230923
  H        -0.0125083484        4.3218705830       28.4620338993
  H         1.6923180569        4.2022951830       28.8185303665
  C         0.7355946527        5.4939351980       30.0420934573
  H         5.1012032545       -1.5809898323       32.6852588916
  C         4.4400180021       -0.0784666258       33.9010026811
  H         4.8671694824        1.1167294142       19.8635989673
  H         5.8739761745        1.0300676806       18.3119019169
  C         4.3053187951        2.5260657441       18.1331477046
  H        12.2098666820        1.8900646124       22.8111291033
  H        12.5256902391        1.1778635343       21.1598956354
  C        13.7326475438        2.8184514090       21.7217953396
  N         9.8611979698        8.9097865049       18.5446987123
  C        10.1812413408        8.6722448099       16.2448899110
  C        10.2451772133        6.5686808384       14.9407457839
  H         9.7829882245        4.8153230066       16.0797661522
  H         0.6052688137        4.7762113945       30.7861697958
  H         1.5159906326        6.2085777443       30.1584147862
  H        -0.2074610032        6.1333774387       30.0652543753
  S         4.1584002961        1.5308629619       34.4231859194
  C         4.2791982992       -1.0677003929       35.0018899090
  H         4.1823339353        3.5111955371       18.6408830804
  H         4.6634743142        2.5793986130       17.1380501120
  C         2.9529386764        1.8516269988       17.9655372717
  H        13.6866483869        3.8497064628       21.2058371931
  H        14.3361005875        2.1536782918       21.1609106753
  C        14.2700916968        2.9414962511       23.0856819255
  S         9.8681790964       10.4357286877       17.9310814422
  N        10.2723695090       10.0984556030       16.3703677149
  C        10.4282373763        8.0321296329       14.9957818564
  H        10.2307952118        6.0616099029       14.0680467253
  C         3.9902626416        0.8716908352       36.0276142573
  N         3.9586489455       -0.4909372063       36.1462379910
  O         4.3952904071       -2.2659917530       34.8070345109
  H         2.3313688925        2.3531604408       17.2483599309
  H         2.3865213044        1.9838815619       18.9446404850
  C         2.9414581720        0.4904244756       17.3737094341
  H        13.6484365137        3.6446786260       23.7132205439
  H        14.2335313024        2.0652557637       23.6610538426
  C        15.6962762951        3.4279301521       23.0452941790
  C        10.7150414625        8.8182383823       13.8766840107
  S         3.5621112837        1.8984317500       37.4222616682
  C         4.1347163676       -1.1709091638       37.4734682102
  H         2.1516217778        0.4949225926       16.5859534591
  H         3.9379295819        0.2135284686       16.8565598710
  C         2.5994529295       -0.5177454737       18.3758583546
  H        15.7319433773        4.2669058828       23.7253737013
  H        15.8081129419        3.8971110621       22.0329217089
  C        16.7368100461        2.2273470837       23.2671320895
  H        10.4951626513        9.8518633897       13.9177257938
  C        11.2063300000        8.5085653584       12.6162930777
  H         3.4393642150       -0.9529919852       38.2554893711
  H         3.9513442445       -2.2564975896       37.3333390867
  C         5.5473672430       -0.9722729814       37.9597289131
  H         1.5998707602       -0.3581477610       18.8154688693
  H         3.3683874598       -0.4977439726       19.1008615347
  C         2.4672754004       -1.8930044522       17.6822557862
  H        16.5794092880        1.8284781422       24.2824198751
  H        16.3593813252        1.5134596234       22.5556824014
  C        18.2354147986        2.5232281192       23.0798538448
  S        11.5810051153        6.8957232574       12.0492353162
  C        11.2376200131        9.5500326169       11.5601904444
  H         5.6929451231       -1.5862588509       38.7827253331
  H         6.2769846085       -1.1604452358       37.1475086759
  H         5.6746299543        0.0414218419       38.2678973959
  H         1.8913211501       -2.5690519724       18.3001864414
  H         3.3249924812       -2.4491734104       17.4359197857
  H         2.0171892296       -1.7358326579       16.7033955569
  H        18.8374333479        1.6576851107       22.8157919281
  H        18.6230434713        2.9799457016       23.9572878914
  H        18.2019630408        3.2368170191       22.2729573896
  C        12.0664831112        7.6664112800       10.5840876111
  N        11.7858125323        8.9517340852       10.4554984984
  O        10.9546367131       10.7221470904       11.6919718648
  S        12.5663742113        6.7303157761        9.2159174338
  C        11.9636349011        9.6789653559        9.2260620111
  H        12.0533656691       10.7475744460        9.4980573678
  H        12.9716202297        9.2922119202        8.7999832854
  C        10.7057388387        9.4725273796        8.3040890747
  H         9.8864021444       10.1668703717        8.5994514636
  H        11.0573804594        9.6030582687        7.2848012343
  H        10.3477583228        8.4578374019        8.4263226320
  H         4.2631870670        1.1706963419       12.6861653675
  C         3.7205475289        2.0661063494       12.7703569197
  H         4.4657431970        2.7686339217       13.0348218800
  C         2.9803047764        2.3349288310       11.4375118013
  C         2.6989731796        2.1442395674       13.9771180663
  C         3.9226829553        2.6703817960       10.2617601058
  H         2.3316204486        3.1539451172       11.7201425940
  H         2.2669096780        1.5528413964       11.2390859421
  H         2.1120592863        1.2315662016       14.1071337158
  H         2.1519365030        3.0464058322       13.9342313029
  H         3.4002497950        2.0776090561       14.8746278851
  C         4.6571307518        1.5120824007        9.6294713081
  H         3.3597837675        3.0846214554        9.4293959966
  H         4.6639042711        3.3888778374       10.4674175890
  C         5.6082743276        1.6545510599        8.4451148313
  H         3.9619919469        0.8071302517        9.2396887363
  H         5.0309163520        0.8333141198       10.3967813669
  C         6.6476207574        2.7439858016        8.6071790906
  H         4.9479298654        1.7944655065        7.5622069873
  H         6.1924565018        0.6709421761        8.4912556833
  C         7.9521754394        2.1690180973        9.2404190289
  H         7.0172459419        3.1054509895        7.6596863204
  H         6.1764377262        3.6201596502        9.0706430933
  C         9.0633020598        3.1940379866        9.3594095292
  H         8.3536251171        1.4245778598        8.5119880681
  H         7.9242624926        1.5669762977       10.2223353436
  C         8.4915827455        4.4596061100       10.0841464689
  C         9.3662687111        3.8799966377        8.1581655947
  C        10.2067660565        2.5271788657       10.0667276041
  C         8.6134872596        5.5830722709        9.2773403050
  C         7.8217298658        4.7216548051       11.2860492033
  C         9.2092427400        5.2040699824        8.0650896128
  C        10.0129383805        3.2820403974        7.0830005571
  H         9.7878885451        2.2159040034       11.0209078082
  H        10.4388466719        1.6524261216        9.5375742026
  C        11.4232037452        3.5096573790       10.2067106711
  S         8.0733277813        7.0007099275       10.0142355774
  C         7.7113948280        6.0577773946       11.4465101362
  H         7.6575378583        3.9704363270       12.0866285947
  C         9.4840386380        5.8265334589        6.8845957588
  H        10.1204279762        2.1832966944        7.1299074593
  C        10.3236906149        3.9118628020        5.8835941531
  H        11.1071040795        4.4824448459       10.5863095758
  H        11.8832631429        3.6899239691        9.2623119379
  C        12.4823261540        3.1121432253       11.2205928686
  C         7.4570740245        6.7170115508       12.8079606186
  C        10.0800273200        5.2494077857        5.7790149532
  H         9.2558428850        6.9302487027        6.8553225115
  C        10.6788952510        3.5680122132        4.5973049483
  H        13.2866433896        3.7550348596       11.2237470623
  H        12.8431677686        2.1564500507       10.8993994760
  C        11.7129720725        2.9673945087       12.5455232644
  C         7.5718760865        8.0837498361       13.1018715178
  C         6.7801505649        5.8933843099       13.8041804471
  C        10.4131679160        5.9345156846        4.4783725291
  C        10.7761376078        4.6703282384        3.7693158662
  S        10.9857824406        2.1106834872        3.8382331494
  H        10.9115186764        3.6347272387       12.6250962265
  H        11.2827767176        1.9841394165       12.4082688602
  C        12.6123710424        3.0659901817       13.7937720970
  N         7.7464277876        9.0786279656       12.1283223810
  C         7.2786923389        8.5750660314       14.3471416811
  C         6.6714117259        6.3733326018       15.1183820944
  H         6.6246902587        4.8163887416       13.6078776335
  C        11.6371491554        6.8320881873        4.7099786098
  C         9.2774044936        6.7934567615        3.9395586732
  C        11.0789013252        4.2913166584        2.4565481918
  C        11.3244309970        2.9505761066        2.3436462945
  H        12.1188632656        3.7682729594       14.5505986061
  H        13.5133254086        3.4427687673       13.3421967863
  C        12.9335323161        1.7309869450       14.4570299182
  S         7.5679487127       10.5085856171       12.9184524003
  N         7.3091191462        9.9517043372       14.4370057179
  C         6.9391761921        7.8021973531       15.4591197233
  H         6.2991670578        5.6902074150       15.9245190496
  H        11.4394104254        7.4905693829        5.6182149442
  H        11.8515164958        7.5349361924        3.8769306707
  C        13.0089161568        6.0177173043        5.0601686170
  H         8.9761378113        7.5054077246        4.7051161122
  H         9.7566581643        7.4123882514        3.1404124901
  C         8.0521966050        6.0059269869        3.5083437982
  H        11.2556026012        5.0951233155        1.7342633202
  C        11.6599710903        2.1945007748        1.0600771707
  H        12.0822276035        1.0373931892       14.2052560524
  H        13.9543583323        1.3174578433       14.1653511847
  C        13.0026239992        1.8732814330       15.9509732556
  C         6.6351316143        8.3486641299       16.7043896304
  H        12.9882888506        5.4067261742        5.9153105350
  H        13.2251565559        5.3032849784        4.2572655086
  C        14.3117656716        6.7827175602        5.2209573287
  H         7.5459079949        5.7090592262        4.3662556315
  H         8.3414968468        5.2584292320        2.8680589691
  C         7.1008134238        6.8971154154        2.6926929988
  C        11.7433497322        0.7796325457        0.9853902227
  C        11.9396762439        2.9910410839       -0.1299876086
  H        13.6655891347        2.7155579038       16.2064862964
  H        13.3801789366        0.9343671671       16.3070188153
  C        11.6351946057        1.9435839239       16.6079465521
  H         6.8547914514        9.4100994970       16.7797716012
  C         6.3552106672        7.7346003113       17.9898863991
  H        14.1195138202        7.6145489936        5.9307206839
  H        14.4317046927        7.2358206797        4.2675474758
  C        15.5334958613        5.9358436887        5.6176082328
  H         6.6534496624        7.7803259983        3.1650133056
  H         7.5985170590        7.2794239295        1.8174213972
  C         5.8695477581        6.1474682527        2.1400292031
  N        11.4831315645       -0.1246083484        2.0529560406
  C        12.1018140369        0.1384903649       -0.2184421556
  C        12.2975864531        2.3172111045       -1.3321688178
  H        11.9493785212        4.0630361553       -0.1561586729
  H        11.7201280261        2.1176805089       17.7091928831
  H        11.0032648383        1.1095373859       16.4822279165
  H        11.0423067402        2.7634124689       16.0865826612
  S         5.9541583369        6.1399941659       18.5646875046
  C         6.3161570532        8.7613476039       19.0997833970
  H        15.5843351826        5.0157933410        5.0666103965
  H        16.4587697714        6.2817950827        5.2338962387
  C        15.6602422743        5.5878368313        7.0245281166
  H         5.3159144548        5.6563756968        2.8967828908
  H         6.1000329613        5.3233423515        1.4356972978
  C         4.9422115012        7.1655018269        1.4153943791
  S        11.6014958465       -1.6642427180        1.4312905854
  N        12.0481352814       -1.3005749039       -0.0958474025
  C        12.2974639759        0.8611023254       -1.4585743964
  H        12.3896714165        2.9478434438       -2.1761367323
  C         5.6484293594        6.8544658650       20.1098958066
  N         5.9052369259        8.1947191963       20.2455021734
  O         6.5387456434        9.9854190997       18.9054367091
  H        15.4200748247        6.3961252379        7.6900378419
  H        15.0293902803        4.7174416564        7.1780928870
  C        17.0763230352        5.0424151273        7.2324928891
  H         5.4794379809        7.8458396892        0.8451293711
  H         4.5989659198        6.6068157074        0.5624964425
  C         3.9025500674        7.9832894187        2.2167004021
  C        12.5471690910        0.1022788334       -2.6433251365
  S         4.9756038879        6.0072197128       21.5735260091
  C         5.7625955204        8.8552216950       21.5796593379
  H        17.1490199765        4.4203819863        8.0752213563
  H        17.2630238177        4.4578695788        6.4299591463
  C        18.1564714064        6.1093401883        7.3747182023
  H         4.1524867237        8.4633388323        3.1320127821
  H         3.0509683955        7.3373425111        2.4993736601
  C         3.3312513425        9.0694879482        1.3126861473
  H        12.2001922317       -0.8809097372       -2.5087551289
  C        13.1498548824        0.3469793521       -3.8336928048
  H         4.9089288992        8.6087015496       22.3141653752
  H         5.4791683996        9.8727012233       21.2466852530
  C         7.0335036421        8.7146604751       22.3312462163
  H        18.5679481154        6.0522763186        8.3731111821
  H        17.7301529216        7.0720853767        7.1704407840
  C        19.2625980812        5.9129037366        6.4208963215
  H         2.9116873230        8.6258982684        0.4401729389
  H         2.4931967154        9.5816106423        1.9407458443
  C         4.4272739608       10.1091016995        0.8594092760
  S        13.5865619989        1.9152033172       -4.2924788943
  C        13.3620256747       -0.7345381697       -4.8690838685
  H         7.3285393291        9.7233351621       22.7148426899
  H         7.8964590888        8.4827043115       21.7963360039
  H         7.0322043983        8.0782343330       23.1973899905
  H        19.9109589548        6.7858161539        6.4150186609
  H        19.8993761068        5.0816286310        6.6987518612
  H        18.9731876500        5.6023035904        5.4341681879
  H         5.1076183329       10.5161053126        1.6117376092
  H         5.0977085208        9.7442961130        0.0850920464
  H         3.9477671340       11.0720576874        0.5172433676
  C        14.1450491657        1.1810675076       -5.7341108468
  N        14.0215087499       -0.1832487036       -5.8297871927
  O        13.1156973324       -1.9026669088       -4.7713116996
  S        14.9090106160        1.9346784822       -7.1724114616
  C        14.2699540938       -0.9513278967       -7.0556240082
  H        14.3194335156       -2.0183960491       -6.9666087862
  H        15.2448279784       -0.6699101492       -7.5164668978
  C        13.0262332543       -0.7141716894       -7.8560923664
  H        13.2871106360       -0.0580745182       -8.7600836846
  H        12.1138800004       -0.3639665631       -7.4059873410
  H        12.8092157292       -1.7459843980       -8.2619761406
