352
 i =    17500, time =     8750.000, E =       105.3976902159
  H         9.7050335976        5.4587975273       31.5051135421
  C        10.6245707757        5.8491023229       31.9110168697
  H        10.3498714467        6.7884479078       32.4025733609
  C        11.6742721951        6.2097222584       30.8463889825
  C        11.1176883824        5.0666421378       33.1374504252
  C        11.5074192048        5.4060455582       29.5675887631
  H        11.5918934734        7.2627059753       30.6622410935
  H        12.6857549936        6.1200550316       31.2304505797
  H        10.7478865243        5.5134317662       34.0620425918
  H        10.6058965822        4.1028133529       33.3452815396
  H        12.2235467747        5.0480189121       33.2477784809
  C        10.6460542659        6.0269531921       28.4874140287
  H        10.9010549982        4.6577594586       30.0237833154
  H        12.4452652432        4.9298200225       29.3467400030
  C        10.8802381958        5.5264423838       27.0445089842
  H         9.5981081243        6.1952050668       28.8891909042
  H        10.9330783917        7.0081330988       28.3052034130
  C         9.6398607034        4.8495274336       26.4802730830
  H        11.7525156827        4.9236962675       26.9574455142
  H        11.1667839308        6.3564338341       26.3448019616
  C         8.5195725450        5.8262226013       26.0799390535
  H         9.9583363921        4.2880448294       25.6351919685
  H         9.2490928148        4.2599045784       27.2197338966
  C         7.4028607463        5.0068742301       25.2663195743
  H         8.1098542416        6.4218580932       26.8913700494
  H         8.9319920084        6.5733675931       25.4229866743
  C         7.0424837757        3.5801740372       25.8549178637
  C         7.9020551169        4.2981193384       24.0463261740
  C         6.0981386790        5.7840846927       25.0519166543
  C         7.3032158289        2.5317592085       24.9816176669
  C         6.4958555346        3.1843742494       27.0635619471
  C         7.8547380287        2.9539663507       23.8509688747
  C         8.4952302703        4.8863685920       22.8953276494
  H         6.3825441080        6.5308413322       24.3586574273
  H         5.8748072807        6.2307225500       26.0444822309
  C         4.8175157857        5.1515687167       24.4991354756
  S         6.9005806638        1.0722376591       25.6673632979
  C         6.4243230656        1.8424888078       27.1651696032
  H         6.2095201302        3.8531977672       27.8112017694
  C         8.3004765105        2.2885091340       22.7009850768
  H         8.5779296147        5.9762289273       22.9367521817
  C         8.8423598733        4.3005096871       21.7381524264
  H         5.0123714101        4.5042650834       23.6017435088
  H         4.4595557990        4.2958125637       25.1637763054
  C         3.6756127329        6.1330643411       24.3295998638
  C         6.0386075884        1.1194271087       28.3964215550
  C         8.8660303121        2.9506324709       21.5733017799
  H         8.0373981492        1.3039391667       22.7009974071
  C         9.2958196933        4.7769622359       20.5339573515
  H         2.8730713970        5.6364042318       23.8002972292
  H         3.9976032267        6.9505531887       23.7163004263
  C         3.0905179535        6.6872607815       25.6827725813
  C         6.1143691386       -0.2979012408       28.5593834669
  C         5.6002813987        1.9031590327       29.5918509018
  C         9.3472435558        2.2909206379       20.3751051717
  C         9.5539851387        3.6487260522       19.6816581711
  S         9.4953826012        6.3221278425       19.7901175665
  H         2.4315051964        7.5204573129       25.4880183047
  H         3.9302143608        7.0940673871       26.2408661118
  C         2.4367403594        5.5876524093       26.5702799551
  N         6.5829690365       -1.1859766214       27.6019005574
  C         5.7312164449       -0.8643875897       29.7407311425
  C         5.2792930431        1.3703883680       30.7538736131
  H         5.2107617816        2.8798570212       29.4258448078
  C         8.2149262980        1.5629312718       19.6328529292
  C        10.6700379863        1.4215821630       20.3880465336
  C         9.7787780288        4.1248964500       18.3417566778
  C         9.7885242860        5.5057525458       18.2891425332
  H         2.0170747930        4.8840993720       25.8161150220
  H         3.1136713124        5.0356278449       27.1391883553
  C         1.4172474148        6.3791114161       27.4150213454
  S         6.5423126276       -2.6912784988       28.2687145233
  N         5.8747432683       -2.2653981909       29.7227697802
  C         5.2871230401       -0.1357975200       30.8836242755
  H         4.9700229533        1.9984469206       31.5057302934
  H         7.9608809544        0.7054990527       20.3356169032
  H         8.5709609101        1.0295676611       18.7852851983
  C         7.0055029209        2.4017245282       19.2648671431
  H        10.7291457919        1.0307832309       19.4012018909
  H        10.6040340374        0.5876239892       21.1466070223
  C        11.9109668337        2.2174444436       20.7283698008
  H         9.8223163766        3.3764055692       17.5531856941
  C         9.9691595569        6.2091814861       17.0013968703
  H         0.6491983992        6.7689575156       26.8114912373
  H         2.0317288608        7.1422572289       27.8415535157
  C         0.9136920875        5.2981675800       28.4466653546
  C         5.0905516230       -0.8166138056       32.1166978381
  H         7.3055832631        3.0084144024       18.3936048685
  H         6.6658173038        3.1655558347       20.0367064545
  C         5.7502864867        1.5391234100       18.8238640258
  H        11.6478593922        2.7649252081       21.6218430449
  H        12.0715873362        2.9943197335       19.9998620699
  C        13.1476455732        1.3335808322       20.8675488865
  C         9.9971469492        7.6407096461       16.8802088437
  C        10.1732612404        5.4917970727       15.7065719400
  H        -0.2319290204        5.1082377967       28.3460615219
  H         1.5472299473        4.3765794235       28.2973397770
  C         1.1555008491        5.7179103897       29.8966057190
  H         5.1027734161       -1.8914863110       32.0480382066
  C         4.7661386136       -0.3980079817       33.3700630730
  H         5.5072984391        0.8097569382       19.6254360656
  H         6.1148497971        0.9614387454       18.0119126983
  C         4.5487402147        2.3083129532       18.2754516986
  H        13.0416777235        0.4674807551       21.5431646156
  H        13.3439106058        0.8616370923       19.9290912548
  C        14.3742095817        2.1467107019       21.2242017168
  N         9.7384111980        8.5731033048       17.8633841787
  C        10.3815799071        8.2192520607       15.6522366274
  C        10.4080762599        6.1011534353       14.4920732167
  H         9.9531343974        4.4210567346       15.6768884854
  H         0.4174569206        5.1467530079       30.4949982770
  H         2.2245198717        5.6558592620       30.2656764250
  H         1.0608414796        6.8062014121       30.0812572860
  S         4.4834904700        1.1800298657       33.9226935362
  C         4.7307020727       -1.4480126659       34.4130505872
  H         4.5137730670        3.1598449875       18.8684450011
  H         4.6529707851        2.5387138774       17.2346897971
  C         3.2201024069        1.5468441852       18.5508276008
  H        14.3852903097        3.0798225615       20.6834352500
  H        15.2591226266        1.5355086332       20.9713135757
  C        14.5618304825        2.4343147407       22.6986885664
  S         9.8400872574       10.0569121077       17.2293733885
  N        10.1525914027        9.6309150777       15.7441881953
  C        10.6047253936        7.5301262933       14.3840774735
  H        10.4855360076        5.5331805028       13.6301526135
  C         4.2568354910        0.3876194804       35.5290505583
  N         4.2864199256       -0.9252365157       35.5796593841
  O         4.8098285774       -2.6306448383       34.1078415008
  H         2.3013891849        2.1492737119       18.2139833315
  H         3.0595120555        1.4307483506       19.6521774033
  C         3.1491520989        0.2595734318       17.8115334842
  H        13.7982327116        3.1402795807       22.9126303102
  H        14.3186772858        1.6507794844       23.4052081506
  C        15.8683244465        3.0740967316       23.1517790918
  C        10.8720795729        8.2912273724       13.1706023709
  S         3.7964803223        1.2327330459       36.9991632811
  C         4.3742938496       -1.6531560037       36.8666804481
  H         3.1946629164        0.5718156115       16.7359881188
  H         3.9871255618       -0.3304502003       18.0291359432
  C         1.8719836394       -0.4261505562       18.2945046115
  H        15.6397895862        3.6549853849       24.0972305094
  H        16.2906751176        3.7367587914       22.4636458131
  C        17.0348539987        2.1653844468       23.4735694094
  H        10.7901925665        9.3218875915       13.2740934415
  C        11.4399873067        7.9439548389       11.9553389834
  H         3.6211073082       -1.3823349699       37.6145229700
  H         4.1923681809       -2.7280444019       36.7472794332
  C         5.7772133095       -1.4133952412       37.4362133695
  H         1.0766719915        0.2736542850       18.0483689250
  H         1.9564017514       -0.4937724609       19.4214263488
  C         1.5666591293       -1.8279545708       17.6027093827
  H        17.5596628323        2.8290091143       24.1965031442
  H        16.7721507062        1.1558232772       23.9946592866
  C        18.0656443927        1.9523589672       22.3833173835
  S        11.8832926305        6.3725509279       11.4273505976
  C        11.5525866898        9.0384222299       10.9652165036
  H         5.9301012511       -0.3651433736       37.6579002226
  H         5.9508163789       -2.0283081464       38.2930668452
  H         6.5349242229       -1.6253150394       36.6885553041
  H         0.7243435868       -2.2636476547       18.2004202835
  H         2.4535743620       -2.5359449326       17.4781499533
  H         1.1170627253       -1.6811837510       16.6308883976
  H        19.0874774259        1.6353056225       22.7910345072
  H        18.0813900417        2.9272042288       21.8753583821
  H        17.5848399829        1.2607811196       21.6427716401
  C        12.0658767108        7.0966653436        9.8804344473
  N        11.9051621710        8.4314199746        9.8185856061
  O        11.0377820131       10.1947690518       11.0831057046
  S        12.7484675720        6.0960265767        8.5339711410
  C        12.1056248965        9.2982518777        8.6521806119
  H        12.2029555415       10.3098365232        8.9521046799
  H        13.0469786794        9.0414769942        8.2470725776
  C        10.8070570825        9.2991627832        7.8360949386
  H         9.9409540601        8.9567840931        8.3802467771
  H        10.5956444047       10.3590056983        7.5644379674
  H        10.8314523779        8.8868568561        6.8761932044
  H         5.0032449166        0.9321629429       12.2639840990
  C         4.4660416898        1.8613896204       12.5219898708
  H         5.0961882387        2.6691560877       12.5048959185
  C         3.3942334410        2.0463938604       11.4456878576
  C         3.9143013048        1.7884507110       13.9911587955
  C         3.9110346528        2.5066280960       10.0770000406
  H         2.5289404832        2.6525059864       11.7522042503
  H         3.1343200634        0.9869897555       11.2994096684
  H         2.8408386978        1.5887876144       14.0418891078
  H         4.0282844856        2.6344055370       14.6232353611
  H         4.3197137965        0.8687591687       14.4201644658
  C         4.6511640286        1.4014071171        9.3725567996
  H         3.0434922547        2.9018880230        9.4356924203
  H         4.5601731376        3.3483504478       10.3055943759
  C         5.3261927219        1.8654534778        8.1088581571
  H         3.9472278732        0.6529475471        9.1405864582
  H         5.3676436527        0.9646345089       10.0764247733
  C         6.5472305724        2.7196040124        8.3461965414
  H         4.5399437671        2.4484961777        7.6436244462
  H         5.6407692057        0.9727341104        7.5563390241
  C         7.7173492438        1.8660771602        8.8856926993
  H         6.6831052048        3.1794265146        7.3856435369
  H         6.2876101699        3.4862277760        9.0512054754
  C         8.9732996506        2.8629986296        9.1326331041
  H         8.0560791318        1.0855332683        8.1785567412
  H         7.3368440477        1.5147874807        9.8792550555
  C         8.6041276693        4.1818549576        9.8518426843
  C         9.4041917765        3.5451713903        7.8993225523
  C        10.1664176499        2.1327853025        9.7649809733
  C         8.8301286954        5.2683308236        9.0712783037
  C         8.2399496767        4.4699154877       11.1412854818
  C         9.2887547615        4.8956761603        7.8343691903
  C         9.9497105358        2.9180871004        6.8018120748
  H         9.9180919257        1.6026371540       10.6950154438
  H        10.5475794338        1.2970344390        9.1528416921
  C        11.4892124497        2.9553249676        9.8761210249
  S         8.4053905164        6.7438063443        9.7783033191
  C         8.0751153063        5.8307507211       11.2247597618
  H         8.0920500416        3.7287794607       11.9300740351
  C         9.7454748018        5.5460727487        6.7053456471
  H        10.0556056106        1.8451579431        6.8174774761
  C        10.3981878842        3.5523151051        5.6514378436
  H        11.1369979727        3.8338194247       10.4563802685
  H        11.8358833543        3.2954779253        8.8650773343
  C        12.6251923501        2.3152401547       10.6295992440
  C         7.5914331293        6.4929854688       12.4931502133
  C        10.3483864566        4.9248912682        5.5656545590
  H         9.7095123677        6.6350895145        6.5699713408
  C        10.7836854473        3.1567737734        4.3818080473
  H        13.3994996046        2.9864565754       10.7982766289
  H        13.0115312481        1.4571647235       10.0987181064
  C        12.1177719652        1.9200096118       12.0257160339
  C         7.4838569382        7.8748798598       12.7710548956
  C         7.2695436277        5.6886651074       13.6995790788
  C        10.8241059694        5.5833431197        4.2676119426
  C        10.9913665397        4.2864721008        3.5667181750
  S        11.1258144578        1.6852598778        3.6073642608
  H        11.4379026406        2.6839049131       12.4538043122
  H        11.6571756686        0.8926865148       12.0066922923
  C        13.3776614364        1.7187631836       12.9648429918
  N         7.6676406726        8.8278527960       11.7986506508
  C         7.2019365071        8.3878018662       14.0052771063
  C         6.9779720828        6.2328818807       14.9833988121
  H         7.3716958988        4.5851216079       13.7891594031
  C        12.0959124978        6.4072553037        4.3174054358
  C         9.5820991426        6.3633362495        3.6081896441
  C        11.2320362626        3.8721479680        2.1862513402
  C        11.3344691886        2.5009211510        2.1252764114
  H        13.9778021856        2.6214426590       13.0116398843
  H        14.0533051948        0.9911770460       12.5880265008
  C        12.9153332721        1.2087971862       14.3426189351
  S         7.4261231407       10.2677781786       12.4935982750
  N         7.1229787559        9.7950982432       14.0609862197
  C         7.0113438472        7.6759260621       15.1666305558
  H         6.6711591685        5.5538895939       15.7466075213
  H        11.7952333284        7.1900848650        5.0040492328
  H        12.2333732671        6.8649336744        3.3554682001
  C        13.3496881396        5.7918167071        4.9677014486
  H         9.4677339540        7.2687810146        4.2268318139
  H         9.9520711019        6.6820427146        2.6867001016
  C         8.2525939185        5.6530383323        3.4248106082
  H        11.1690438424        4.5654252173        1.4027261422
  C        11.6035994123        1.6440616885        0.8615269792
  H        12.3320436568        0.3289734255       14.0855265737
  H        13.7582105327        0.7951393072       14.9437165089
  C        12.1479398003        2.2660350149       15.1442780207
  C         6.8254033623        8.2359708335       16.3923198906
  H        13.0660534161        5.0928838491        5.7185345251
  H        13.6551159105        5.0824540544        4.2057631793
  C        14.4500832524        6.7017243165        5.3531929611
  H         7.8567723464        5.2806430211        4.3602073230
  H         8.2424362485        4.7839265277        2.8296956949
  C         7.2908769263        6.5848150732        2.5697835857
  C        11.7200096942        0.2214899704        0.7707431511
  C        11.8206061812        2.3082225403       -0.3826506644
  H        11.1240946860        1.8786611878       15.2413044066
  H        12.1513189268        3.2089818921       14.7161448829
  C        12.7818645497        2.3963622699       16.5535563988
  H         7.0206978317        9.2419279324       16.4892182593
  C         6.7205633118        7.7095709283       17.6688761378
  H        14.1639948552        7.1582127232        6.2728491668
  H        14.5716340477        7.5476620837        4.6242901005
  C        15.8453771682        6.0614006288        5.3806020145
  H         7.1882665011        7.5332667387        3.0372708041
  H         7.8854744055        6.7621474409        1.6930393975
  C         6.0797200406        5.7679408624        2.2000340508
  N        11.5688381320       -0.7492382442        1.8852669302
  C        11.8108040583       -0.5101589005       -0.4405616610
  C        12.1187427715        1.6285674833       -1.5757080090
  H        11.6520898812        3.3592319801       -0.4548026860
  H        13.8853878612        2.5046932355       16.4836436107
  H        12.7087277702        1.5613183445       17.2207031037
  H        12.4331674157        3.2683744449       17.0726588828
  S         6.4945271843        6.0797862220       18.2104513909
  C         6.5503369662        8.7124062686       18.7911663173
  H        16.0521965508        5.2858132307        4.6510355001
  H        16.5451784375        6.8620439474        5.1108394075
  C        16.1785783203        5.6698266957        6.8129934489
  H         5.6142602143        5.2245413109        3.0770341314
  H         6.4491705367        4.9802562483        1.5618547670
  C         5.0402010814        6.7011882604        1.4441483371
  S        11.5468643067       -2.2725202817        1.3311273003
  N        11.7886445774       -1.9294319914       -0.2384200213
  C        12.0779020664        0.1484418217       -1.6701168174
  H        12.0854597103        2.2144070423       -2.4220123244
  C         6.2644964518        6.7397329043       19.8128676006
  N         6.2847221074        8.0911582126       19.9759404675
  O         6.7399499177        9.9320965460       18.6901233917
  H        16.1981504724        6.5123024262        7.4604526494
  H        15.4515591096        4.9751642734        7.1288213771
  C        17.5409468148        5.0845389274        7.0396504566
  H         5.5154838345        7.2222546212        0.6574959949
  H         4.2146741117        6.1453222235        1.0002275124
  C         4.4313131018        7.7978648399        2.2759001412
  C        12.4456927444       -0.5954735785       -2.8438575609
  S         5.7140233488        5.7675909305       21.1573159158
  C         6.2322687512        8.7730286399       21.2891925997
  H        17.5016448734        4.4758069380        7.9879317866
  H        17.6830771826        4.2907187544        6.3336908010
  C        18.6024999426        6.0806363724        7.0272980997
  H         5.0094824469        8.0779962328        3.1831515867
  H         3.5130324770        7.5603475897        2.6808493513
  C         4.1879821919        9.1298261854        1.3836789063
  H        12.3711914086       -1.6827512028       -2.8010570090
  C        12.9416916201       -0.2261213245       -4.0123127803
  H         5.6020351074        8.2932844061       22.0356452458
  H         5.8731117869        9.8251457855       21.1340918525
  C         7.6349093434        8.8207538237       21.8640309182
  H        19.4246433520        5.6810034004        7.7231304337
  H        18.4640904284        7.1307069741        7.3169299787
  C        19.4102571815        6.0720583902        5.7503786572
  H         5.0845823500        9.5169217952        0.9839494575
  H         3.6127124359        8.9062541519        0.4422446458
  C         3.6318724392       10.2893307235        2.2318307717
  S        13.3264279734        1.4031877991       -4.3508641427
  C        13.1068057195       -1.2065443240       -5.1063086434
  H         8.3887335799        8.0496400809       21.6377205570
  H         7.6589846548        8.7995605654       22.9387781350
  H         8.1208336850        9.6651994332       21.4874079509
  H        19.2870179925        5.1474537967        5.1338588806
  H        19.1999752666        6.9714733577        5.1661325445
  H        20.4866113155        6.0005148709        5.9728579505
  H         2.6149667163       10.0858341921        2.4758872288
  H         4.2683410231       10.5407738946        3.0992465504
  H         3.6237054380       11.1784854316        1.5435972143
  C        13.9363498449        0.7599580996       -5.8529076340
  N        13.7780189732       -0.5596641113       -6.0883597261
  O        12.9271768177       -2.4051025357       -4.9543685371
  S        14.3852208480        1.6735233198       -7.3373595331
  C        14.0455425958       -1.2854993065       -7.2868038204
  H        14.1645982052       -2.2902655558       -6.9699139116
  H        14.9485321199       -0.8951551011       -7.8489867134
  C        12.8468264083       -1.3653295086       -8.2718842452
  H        11.9028782165       -1.4292495669       -7.7083779285
  H        12.9314932799       -2.3438077379       -8.8689289812
  H        12.8420239568       -0.5627902832       -8.9973173276
