352
 i =   103000, time =    51500.000, E =        99.7934445420
  H        10.9616769985        4.4518809118       31.8838680049
  C        10.9143990940        5.4243211945       32.3141320166
  H         9.9037769374        5.7555687068       32.4308531427
  C        11.6404335389        6.3069212938       31.3938741165
  C        11.6358834841        5.3615719323       33.6737055747
  C        11.1514132009        6.3880231679       29.9693569412
  H        11.6284753674        7.3563941488       31.8262015012
  H        12.6958647455        6.0269207431       31.4178504677
  H        11.1206008603        5.7169821546       34.5239333615
  H        11.8020747911        4.2730148413       33.8732918000
  H        12.6113127012        5.7968733482       33.6818659566
  C        10.8798612864        5.0945236265       29.2895037113
  H        12.0061546174        6.9588059232       29.4468397509
  H        10.3259478392        7.0212259841       29.9907918520
  C        11.0440719158        5.3232678533       27.7462506686
  H        11.6222888967        4.4173903025       29.6327320778
  H         9.9972067412        4.6833277112       29.5672012069
  C         9.8805875373        4.7413957844       26.9920349677
  H        11.9999765323        4.8022134682       27.3484644647
  H        11.1175364282        6.3673516377       27.5422027031
  C         8.8470761324        5.8251378373       26.6000971618
  H        10.3966129327        4.3030194448       26.1138834143
  H         9.4026011258        3.9169759153       27.5422388867
  C         7.6711017180        5.3365445310       25.7160900294
  H         8.5997115526        6.4975784547       27.4490698499
  H         9.3293657353        6.5726550977       25.9672268217
  C         7.2737561980        4.0506415564       26.3954922389
  C         8.1449372658        4.6735453323       24.5099531861
  C         6.5272776442        6.3844078440       25.4105148468
  C         7.6811829155        2.9762030929       25.7048015344
  C         6.6377174793        3.6785084830       27.6206944528
  C         8.1047932908        3.3243061779       24.4435940762
  C         8.6212107599        5.2583829321       23.2811213213
  H         6.9552933610        7.1445588352       24.6962186771
  H         6.3440070743        6.8098407881       26.3735373581
  C         5.2751463016        5.7204771840       24.8833892410
  S         7.3645433206        1.5167312712       26.5200199222
  C         6.7023220931        2.3613341429       27.8110079196
  H         6.2617207251        4.4386155787       28.2605425668
  C         8.4757810393        2.6792289678       23.3333136594
  H         8.7820715160        6.2924019793       23.2817848587
  C         8.9528869936        4.5517554500       22.1479950307
  H         5.5057993238        5.3800246833       23.9114134273
  H         5.0380508911        4.8667739289       25.5681717023
  C         4.0043015329        6.5202974430       24.7400791223
  C         6.1777870284        1.7024630059       29.0475326428
  C         8.8959339359        3.1898241511       22.1235639347
  H         8.3715585088        1.5931872965       23.4686245645
  C         9.2930262865        4.8315555813       20.8380395518
  H         3.1929470750        5.9772066271       24.2074669193
  H         4.3323345174        7.3845330582       24.1482270230
  C         3.4271164842        6.8673224068       26.1085322248
  C         6.1108224732        0.3376300991       29.3419207620
  C         5.7291128008        2.5594020488       30.1841393686
  C         9.3436444341        2.4752633866       20.8656901741
  C         9.4807771889        3.7444582978       20.0670721721
  S         9.7131830485        6.2591020169       20.0564243270
  H         2.8029864932        7.7831037606       26.0816563140
  H         4.2995378350        7.0396012024       26.7424320335
  C         2.6180135341        5.7292069176       26.7857816152
  N         6.2039364797       -0.6158545127       28.3881865170
  C         5.8405789951       -0.1778384485       30.5741247584
  C         5.4416901307        1.9780662796       31.4440513759
  H         5.6518550570        3.6188103752       30.0510044140
  C         8.2051660096        1.5200390950       20.2695640232
  C        10.6608124507        1.7728615457       21.0201324866
  C         9.8429410627        4.0611956450       18.7691601032
  C        10.0302616219        5.3783139399       18.5843217621
  H         1.5569963138        5.7586026205       26.4809552990
  H         2.9202021806        4.6938745976       26.5677810050
  C         2.3063438058        5.8330740756       28.3045515160
  S         6.1879544968       -2.0706990273       29.1068057511
  N         5.9294748264       -1.6027069531       30.5957022364
  C         5.5163882474        0.5780862810       31.7545027439
  H         5.2048283943        2.6051031418       32.2441406054
  H         7.7569097009        0.9208403154       21.0138521565
  H         8.6514159088        0.7511224249       19.6589117892
  C         7.0952879419        2.2012946144       19.4724549054
  H        10.8391901993        1.0709872552       20.2598086095
  H        10.6323700675        1.1503315217       21.9148685982
  C        11.9781733486        2.5895477223       21.0451910871
  H         9.7499153072        3.2430349962       18.0217021036
  C        10.4132358101        5.9700252095       17.2565964812
  H         1.3815995845        5.3289259353       28.5410395841
  H         2.1231470346        6.7891834459       28.5755896761
  C         3.4720987198        5.3817038370       29.1010117068
  C         5.2437991426       -0.1308529671       32.9976425794
  H         7.6401978994        2.4040765601       18.5944214182
  H         6.7981934242        3.1608967413       19.9991771857
  C         5.8809526759        1.2458125112       19.1560488539
  H        11.8647818635        3.4005981389       21.7587662823
  H        12.2358506637        3.1204335807       20.1244618470
  C        13.1826181523        1.7901242974       21.6067994530
  C        10.3544919818        7.3460203531       17.0221915816
  C        10.5400790999        5.1542224120       16.0417220243
  H         3.7846903552        4.3975310490       28.7708917949
  H         4.4114249590        5.9711242958       28.9699066182
  C         3.1643472675        5.4204368362       30.6240429271
  H         5.2168508137       -1.2050519064       32.8967607552
  C         4.9662462497        0.2738069951       34.2687796257
  H         5.4480705861        1.0359334618       20.1511125650
  H         6.3154815978        0.3950134159       18.8136237183
  C         4.8478007556        1.8629576303       18.2239480859
  H        13.0278030128        1.6467411666       22.6593009910
  H        13.2330423190        0.7386531839       21.3295775594
  C        14.5740839650        2.3814868907       21.2456307779
  N        10.0767572218        8.3349217787       17.9822198141
  C        10.6542169452        7.8631172351       15.7756974599
  C        10.7516822983        5.6567648628       14.7582526942
  H        10.6395274776        4.0834200676       16.1338628168
  H         3.8226830651        4.8274148953       31.2847894647
  H         3.3174307891        6.4865271708       30.9406934455
  H         2.1395598960        5.1449630029       30.8764884279
  S         4.6989120352        1.8771412781       34.7841128391
  C         4.7564216428       -0.7659725570       35.2730516892
  H         4.5815113890        2.8811306284       18.5851832298
  H         5.2173892868        2.1456166546       17.2045608723
  C         3.5240121184        1.0227313577       18.1031037744
  H        14.5934950518        3.4511754203       21.4003794888
  H        14.7004198230        2.1622173772       20.0942664974
  C        15.7590211646        1.7285297625       21.9056421437
  S        10.1685748558        9.8001566895       17.3029802421
  N        10.6197946200        9.2463956575       15.8312281609
  C        10.9444758989        7.1313675768       14.6318552483
  H        10.9243437758        4.9907852609       13.9421158459
  C         4.4235627721        1.1328899172       36.4001189596
  N         4.4052718889       -0.2248122365       36.4315913064
  O         5.1264577876       -1.9534829799       34.9996588857
  H         3.2800772601        0.8862989683       17.0362266961
  H         2.6097090939        1.5545732264       18.4959778974
  C         3.5306882278       -0.3518296404       18.8436596685
  H        15.4536649388        1.6592973991       22.9503472754
  H        15.8951048830        0.6506968738       21.5066586062
  C        17.0465135874        2.5932714944       21.7693873400
  C        11.2996058663        7.7679496203       13.4005077654
  S         3.8550364642        1.9870264892       37.7954958123
  C         4.2036790761       -1.0161665765       37.6396420269
  H         4.2996244078       -1.0330946585       18.6094531912
  H         3.6186295006       -0.3360353689       19.8798301849
  C         2.2511099594       -1.0922835117       18.5111649516
  H        16.9751808488        3.6567892643       21.9726566935
  H        17.4622166699        2.4006877682       20.8024461945
  C        18.1375754529        2.1199826136       22.7655802665
  H        11.2942842895        8.8297919705       13.6138203001
  C        11.7692569243        7.4318885673       12.1820800535
  H         3.4193705797       -0.6003135993       38.2371769196
  H         3.8726059188       -2.0240301351       37.3853548316
  C         5.5028372941       -1.2238407040       38.3340512746
  H         1.3988729530       -0.3766298854       18.4042667594
  H         2.0342742723       -1.8369801928       19.2911722823
  C         2.1940173373       -1.8153280563       17.1712303736
  H        18.4386673520        1.1033807395       22.5857426914
  H        19.0771851644        2.6587540303       22.7276119339
  C        17.7254274272        2.2190022149       24.2411358204
  S        12.3011090299        5.8803007782       11.6044374945
  C        11.9265142248        8.5646188590       11.1983250113
  H         5.6892013498       -2.2260018258       38.7006917361
  H         6.3577151943       -0.8545576740       37.8046940306
  H         5.5009555351       -0.6775435502       39.2878718905
  H         2.9273359449       -2.5975530047       17.0793942084
  H         2.2807547099       -1.1218995644       16.3477366299
  H         1.2051271790       -2.2438404269       17.0515424106
  H        18.5162352718        2.7225641573       24.7023172526
  H        17.4463976145        1.2622505719       24.6824649348
  H        16.8660501770        2.8371345321       24.2649145971
  C        12.7357028275        6.7198069583       10.1487314801
  N        12.5789245747        8.0750689064       10.1735716910
  O        11.5177790952        9.7016773920       11.4436013189
  S        13.5371160805        6.0327530707        8.7874714672
  C        12.5761072281        8.9449387615        9.0115469769
  H        12.8550581377        9.9077383156        9.3655495531
  H        13.3580824306        8.8073132357        8.2599175999
  C        11.2109853958        8.9814509897        8.3300202248
  H        10.4134785624        8.7865400452        8.9942061748
  H        11.0372636501       10.0728382223        8.2015807605
  H        10.9841786053        8.4529212637        7.4254804743
  H         2.5288131947        3.3621789888       12.1534362985
  C         3.0251031245        2.3893827210       12.2380999401
  H         2.4163444225        1.6971343900       11.6476262031
  C         4.4440675293        2.4783464820       11.7407586624
  C         3.1149374355        1.8561906626       13.6991604646
  C         4.3958598535        2.6992107714       10.1849609026
  H         4.9659285864        1.5886140011       12.0704381004
  H         5.0137660332        3.2676719260       12.2702046627
  H         3.8400448864        2.2080658761       14.3885506985
  H         3.3471832778        0.7831656204       13.6588898346
  H         2.1076116612        2.1103882227       14.0735870973
  C         4.7472821441        1.4578514567        9.4720223128
  H         3.3735251099        2.9639494524        9.8106268297
  H         5.0255888062        3.5495324345       10.0320113668
  C         5.5394326694        1.5807544755        8.1523259388
  H         3.8878705413        0.7782983470        9.3260750615
  H         5.4087683988        0.9819782684       10.1274938590
  C         6.8705397554        2.4201705391        8.1596729854
  H         4.9439617980        2.2015431877        7.5179311826
  H         5.6809535990        0.6147273764        7.7388556757
  C         7.8570666581        1.7361451455        9.0315594805
  H         7.3103033444        2.4878559597        7.1834635204
  H         6.6956662336        3.3998756179        8.5337074962
  C         9.2601437464        2.5307921675        9.2690969364
  H         8.1354955002        0.7320828409        8.6399075981
  H         7.4632112828        1.6123127916       10.0505906502
  C         8.9905874543        3.8566827480        9.9073215243
  C         9.7687694968        3.2023992428        8.0212639984
  C        10.3806670290        1.7507143731       10.0379613595
  C         9.3839029929        4.9303013138        9.1752744506
  C         8.2780811642        4.2546255109       11.0739040722
  C         9.8477251228        4.5552541084        7.9468460431
  C        10.2139840832        2.5739318961        6.8502986669
  H         9.9408825683        1.2983513645       10.9209987031
  H        10.6388743164        0.8856355512        9.3655662275
  C        11.6095247008        2.5403289609       10.4724241712
  S         9.0573037978        6.4576943956        9.8206582688
  C         8.4153139249        5.6514281298       11.2028632884
  H         7.8470410258        3.4839346170       11.7319488866
  C        10.2585583601        5.1802283088        6.7909577362
  H        10.1110873923        1.4429553732        6.8966707501
  C        10.6872735974        3.2254739514        5.7463169876
  H        11.2585549374        3.3004908110       11.2845023639
  H        12.0903414670        3.1337876295        9.6752863218
  C        12.6490989592        1.8452916385       11.2783628573
  C         7.9060942394        6.3433779046       12.4073385052
  C        10.7137547445        4.5524376684        5.6394609494
  H        10.2497052846        6.2105489789        6.8247936026
  C        11.1185587430        2.8594013268        4.4455718966
  H        13.6203680635        2.3796939473       11.1801156917
  H        12.7572632356        0.9078955116       10.7572078138
  C        12.3110588143        1.6727310644       12.7493977180
  C         7.9838859171        7.7465439688       12.6326489601
  C         7.4063029421        5.5577148480       13.5343503324
  C        10.9869991537        5.2527680045        4.3504321577
  C        11.1737337364        3.9179196148        3.6004699942
  S        11.2349034822        1.2796736416        3.5738676878
  H        11.3965046843        2.1052079928       13.1687126871
  H        12.1536493704        0.5782497956       12.8820697432
  C        13.4091011304        2.0447598354       13.7236707898
  N         8.3582685944        8.7074709610       11.6905956910
  C         7.6606260141        8.2994171119       13.8946623671
  C         7.2322784449        6.0959144193       14.7946906129
  H         7.3973815434        4.4621156129       13.5489078069
  C        12.3022313261        6.1268003293        4.4484771688
  C         9.8203224558        5.9356322122        3.6238925918
  C        11.5954476046        3.5649461775        2.3052655566
  C        11.7194603345        2.1871792424        2.1785067588
  H        13.7162463915        3.0308388928       13.5731976717
  H        14.2758276790        1.3020566172       13.7414717756
  C        12.8633776666        1.9872435895       15.1501686870
  S         8.2387578291       10.2170112423       12.3750032920
  N         7.7588145578        9.6659317951       13.8786861879
  C         7.3523840763        7.5503795207       15.0414552191
  H         6.7804453416        5.4376252151       15.5380473248
  H        12.1302081924        6.8872741144        5.2800614769
  H        12.3888130726        6.6044932557        3.5041787680
  C        13.5211244773        5.2014105429        4.7524577356
  H         9.3905811768        6.7009308009        4.2471305307
  H        10.1874147240        6.4236283295        2.6993661328
  C         8.5959903698        5.0711926552        3.2955702935
  H        11.6026165531        4.3167110223        1.5001709206
  C        12.0268267834        1.4456949788        0.8863187651
  H        12.2129579143        2.8236434083       15.1750729555
  H        12.1886722227        1.1051539277       15.2430451111
  C        13.9421662462        1.8303959506       16.1835506259
  C         7.0591587489        8.2871367591       16.1896523859
  H        13.3390984587        4.6583475558        5.6348678948
  H        13.6661255466        4.4036020849        3.9923517455
  C        14.8098448855        6.0275848480        4.7965609562
  H         8.3733968836        4.5367819825        4.2156497220
  H         8.7817483469        4.2229977983        2.6161181884
  C         7.4742751835        5.9284107916        2.7395973066
  C        12.0164142950        0.0110849581        0.6115162060
  C        12.3388335696        2.2523925858       -0.3188032120
  H        14.9001378299        2.0482536504       15.7456886626
  H        14.0381711286        0.8115475579       16.6219285333
  C        13.7149241980        2.5222234620       17.4871186459
  H         7.1637866174        9.3638575177       16.1388918646
  C         6.8231154733        7.8443153384       17.4762192938
  H        14.7264229115        6.8744470735        5.4080233241
  H        15.0960311147        6.3396251172        3.8285581040
  C        15.9700967157        5.1783702477        5.2466899499
  H         6.9937020659        6.5331255394        3.5132627629
  H         7.9542331848        6.6332309431        2.1069657213
  C         6.4941684344        5.0107974125        2.0114416081
  N        11.7794586758       -1.0345909767        1.5221681579
  C        12.2409583392       -0.5498188346       -0.5920369824
  C        12.6403639663        1.6720187276       -1.5731205797
  H        12.3520976706        3.3635961810       -0.2539297686
  H        14.6560513024        3.0751454890       17.5384250932
  H        13.6111467438        1.8307294051       18.3492929481
  H        12.9759898300        3.2998863631       17.4125994273
  S         6.7618805145        6.2813805822       18.0127036122
  C         6.6928980211        8.9443009818       18.5133763456
  H        15.6085118984        4.2062324981        5.4387401357
  H        16.6760097549        5.0998743096        4.4615933266
  C        16.5966681717        5.7729141544        6.5029464228
  H         6.3276663369        4.1219427908        2.6690166269
  H         6.9546632665        4.8301434010        1.0260331698
  C         5.0968926831        5.5888416821        1.8350986370
  S        11.8819690034       -2.5245214536        0.8851017472
  N        12.2820305381       -1.9745172557       -0.5761191971
  C        12.5777572660        0.1749639402       -1.7504805573
  H        12.9766038343        2.2865744776       -2.3921577646
  C         6.5047476749        6.9599423241       19.6075943555
  N         6.4189726128        8.3345075739       19.6910166966
  O         6.6555187651       10.1147961294       18.1913168830
  H        16.9855533187        6.7453154594        6.1268243727
  H        15.8219115475        6.0054493398        7.2899777106
  C        17.6916537273        4.7932806896        7.0251186766
  H         4.3238198280        4.8853782730        1.4541831264
  H         4.7036663522        5.8365638309        2.8636548096
  C         5.0636975377        6.7987978656        0.9500411245
  C        12.6873130004       -0.5712496557       -3.0167977703
  S         5.9691797276        5.9858169069       20.9520362138
  C         6.3461368263        9.2399050987       20.8724056112
  H        17.3974073150        4.2216481516        7.8670157423
  H        17.8530333243        3.9974830693        6.2952295072
  C        18.9225271329        5.5430973253        7.3669964567
  H         4.6066674793        6.6135548356        0.0077255440
  H         5.9847205211        7.2145634519        0.6194876072
  C         4.1330767748        7.8915361513        1.5303151022
  H        12.3367265586       -1.5366671115       -2.9618661490
  C        13.3021711777       -0.2128911158       -4.1710096668
  H         5.4999546208        8.9175130867       21.4629503557
  H         6.1137864001       10.3225526002       20.6059699032
  C         7.7064684554        9.2372831321       21.5141099656
  H        19.4473235408        5.0647092704        8.1945394201
  H        18.6892623031        6.5315214331        7.7622376044
  C        19.8564418239        5.4912502438        6.1276987592
  H         3.7513013074        8.4852046257        0.6892086814
  H         3.2907006984        7.5170774458        2.0370576235
  C         4.9121313189        8.8015410550        2.4768843978
  S        14.0900677788        1.2302054565       -4.5581105419
  C        13.3929828314       -1.2299496856       -5.1887904859
  H         7.9216325356       10.1912363970       21.9533048581
  H         8.5870443666        8.8936923853       20.9853904901
  H         7.5304282461        8.5849197667       22.4238036911
  H        20.1652310794        4.5155179619        5.8783229898
  H        19.4144623086        5.9717632794        5.2864365432
  H        20.7361314709        6.0921435692        6.5301183808
  H         5.7040054764        9.1890752752        1.9138831729
  H         4.2172660630        9.6419819072        2.8415638939
  H         5.2650749598        8.4031064682        3.4535600934
  C        14.3311967420        0.5416065675       -6.1120654319
  N        13.9348923254       -0.7357113300       -6.2889046855
  O        12.7451023646       -2.2585171433       -5.2281326369
  S        14.9458024651        1.4408195195       -7.5457087547
  C        14.2198750114       -1.5514036358       -7.4420221840
  H        14.4388671979       -2.5843455500       -7.2195037753
  H        15.2098586901       -1.3445149002       -7.8704406704
  C        13.1959897690       -1.3683831713       -8.5424417487
  H        12.1384728841       -1.3109166962       -8.2315545618
  H        13.2455442203       -2.0604804117       -9.3722676298
  H        13.4301972347       -0.3723040908       -8.8781294247
