352
 i =     4300, time =     2150.000, E =       189.5534279011
  H        12.3065589116        6.4183065386       32.4592455225
  C        11.4906274617        5.6566582454       32.3657831171
  H        11.8996047054        4.7017703929       32.0511808383
  C        10.3893354159        6.1364332512       31.3227328151
  C        11.0271078482        5.3952887557       33.8495457877
  C        10.6353835349        5.3661243087       29.9851950877
  H         9.3893234211        5.7017531432       31.6537580389
  H        10.3334739443        7.1314804375       31.3308810725
  H        11.8286143731        5.1455863723       34.5827167086
  H        10.5242522024        6.3145731539       34.3212804630
  H        10.2518675185        4.6315658205       33.9001173414
  C         9.8955865874        5.9239766553       28.7402734539
  H        10.1826603795        4.3615925110       30.3418400907
  H        11.6351804969        5.1778870307       29.8132019042
  C        10.6212837615        5.5604025078       27.4468326953
  H         8.8943774589        5.7303411010       28.7357742429
  H        10.0042972307        7.0278925931       28.7256912484
  C         9.5806775956        4.7061913189       26.5142056967
  H        11.5991779259        5.1323116980       27.7570649189
  H        10.8646607730        6.4458404569       26.9036367317
  C         8.5227113897        5.6252302434       25.9424283156
  H        10.2941997320        4.2965786524       25.8189103545
  H         9.1421085929        3.9391486113       27.1365274327
  C         7.3904629013        4.8432439497       25.2218795547
  H         8.1152093020        6.0764326364       26.8582659112
  H         8.9459064578        6.3378861380       25.2547011638
  C         6.9723959730        3.5141083330       25.9652636696
  C         7.8815681937        4.0847345228       24.0188420393
  C         6.1570292762        5.6990930669       24.9137861548
  C         7.2864112312        2.4072603405       25.1672355343
  C         6.4781621373        3.1293946393       27.2111850441
  C         7.8059281416        2.7382898563       23.9460805041
  C         8.3332645017        4.6463958800       22.8369088791
  H         6.2607311954        6.5477277433       24.2782361875
  H         5.8708214785        6.3672533343       25.6829541060
  C         4.9200225727        4.8782807641       24.4716707150
  S         6.8355865705        0.9084927800       25.8775826039
  C         6.3331374879        1.7403003863       27.3254811989
  H         6.2093214133        3.9236941100       27.9848032836
  C         8.1674241881        2.0293206938       22.7784009727
  H         8.4118565479        5.7578454559       22.9521056953
  C         8.7403571990        4.0414186337       21.6638688168
  H         5.3268796407        4.1506330133       23.6950480468
  H         4.5616245025        4.2199136361       25.2651630026
  C         3.6123757573        5.6982239918       24.2749227951
  C         5.9724251170        1.0879202590       28.6099985611
  C         8.5819425734        2.6729068828       21.5919427031
  H         7.9847032149        0.9174157054       22.7338495173
  C         9.1293828795        4.5408456408       20.4702139512
  H         3.0607352358        5.0971431634       23.5283847037
  H         3.9762096763        6.6294978841       23.9391657636
  C         2.9432290539        5.9896014531       25.5802835436
  C         5.8825307918       -0.2706568289       28.8466537615
  C         5.2927384293        1.9756923082       29.6374432346
  C         8.9326127533        2.1429053710       20.2353920040
  C         9.3355409917        3.4866454210       19.5879566357
  S         9.3058749302        6.1145650858       19.8490670273
  H         2.2724648195        6.8697606268       25.3925013872
  H         3.5952895459        6.5182739160       26.2161140144
  C         2.2589665263        4.9397486694       26.2816961715
  N         6.3384438331       -1.2863887966       27.9490765990
  C         5.4842184911       -0.7793585303       30.0466153343
  C         4.9275680370        1.4131665623       30.8969717310
  H         5.2066530382        3.0802076657       29.5355705473
  C         7.6270210859        1.4029594259       19.5964541905
  C        10.1066485288        1.2277989859       20.3532258726
  C         9.6891827794        3.9834985745       18.3702063012
  C         9.7402234670        5.3268630455       18.2976520271
  H         1.4875230947        4.4362812394       25.5960485721
  H         2.7757586341        3.9645634946       26.4907779709
  C         1.4154421812        5.4584051184       27.4377541518
  S         6.1009300388       -2.7269216482       28.6091281496
  N         5.5328512096       -2.1845068191       30.0436119211
  C         5.1316609566        0.0164919373       31.1185075503
  H         4.4989929901        2.0894729022       31.7011442852
  H         7.2000297898        0.7775391945       20.4247663297
  H         7.8966819808        0.7486807701       18.8022500885
  C         6.7732690193        2.4961011185       19.0629495051
  H        10.3807757342        0.8062092209       19.3400395056
  H         9.7757217597        0.3396935979       20.9372008089
  C        11.3087026583        1.7429190953       21.0888923963
  H         9.8160635536        3.1826832724       17.5612542878
  C         9.9824022194        6.0933388427       16.9763029765
  H         0.4577337714        4.9216655460       27.4735941049
  H         1.0492418021        6.4494694940       27.3051238885
  C         2.3087505278        5.5009758473       28.6961874076
  C         4.9301539444       -0.7544160466       32.3405496734
  H         7.2329765153        3.1013490291       18.2424278776
  H         6.5948828323        3.0617934635       19.9798159609
  C         5.4978223144        1.9349053170       18.5824763311
  H        11.1015282342        1.8509862141       22.1994834294
  H        11.6353464544        2.7338630516       20.7991423844
  C        12.5528738731        0.8987162252       21.1423991766
  C        10.0993628372        7.4614702544       16.8352421194
  C        10.0792798369        5.3533309411       15.7212782219
  H         2.8634711027        4.5416038739       28.6404249503
  H         2.8014389448        6.4816921971       28.6524749006
  C         1.5495793660        5.6869275008       29.9659973129
  H         5.1838647395       -1.8666587551       32.3712841011
  C         4.7350265785       -0.1656890080       33.6230775128
  H         5.0785862607        1.3686377417       19.3939554591
  H         5.9079165112        1.2131022666       17.8624007683
  C         4.4921918976        2.8885255024       17.9920814294
  H        12.2756997238        0.3527377842       22.0696343368
  H        12.6824670856        0.2096619955       20.4138809387
  C        13.8324447439        1.6323944307       21.3274630752
  N         9.8614566896        8.3778863726       17.8572713780
  C        10.2806526304        8.1571696711       15.6622557016
  C        10.3237690755        5.9904224293       14.5387181467
  H         9.6704528950        4.3613659146       15.6259251415
  H         0.5682177460        5.2290513254       30.0090390453
  H         2.0969948818        5.3478917516       30.8934417107
  H         1.3148189856        6.7466272570       30.0825453174
  S         4.5453677948        1.4772073708       34.1418682378
  C         4.5830198613       -1.2394453878       34.6399415038
  H         4.5899570429        3.8540720007       18.4047259719
  H         4.7409130821        2.9931952888       16.9647893603
  C         3.1028099848        2.2394589703       18.0685962136
  H        14.0148263073        2.2859648015       20.5094875569
  H        14.7440684992        1.0096407377       21.1826439195
  C        13.9379428955        2.4749428040       22.6119626756
  S         9.8680231995        9.9018584848       17.2982501874
  N        10.1706151146        9.5972332723       15.8191206951
  C        10.5087551206        7.5010491317       14.4635285724
  H        10.1454528308        5.2726876186       13.6901533523
  C         4.2948274221        0.7381945868       35.7311278161
  N         4.3075338978       -0.6303185106       35.8304692734
  O         4.7453159981       -2.4798515327       34.4350019555
  H         2.3981095858        2.9172247528       17.8138822727
  H         2.7927853497        2.1201553704       19.1447234482
  C         3.0110762000        0.8936806040       17.2781914996
  H        13.1445733471        3.2570083714       22.5434962884
  H        13.5148336096        1.9066079511       23.3779508100
  C        15.3216671556        3.1861900651       22.8490021172
  C        10.6468587196        8.3005006983       13.3344027336
  S         3.7621987415        1.7179017118       37.1505795728
  C         4.2896804877       -1.3068988097       37.1682681056
  H         2.3523278760        1.1480336308       16.4754135004
  H         3.8504948325        0.3966067181       16.8626312874
  C         2.3286109635       -0.1538919946       18.1346580481
  H        15.2381121603        4.0665274941       23.4822898955
  H        15.5436988982        3.4387976838       21.8342432658
  C        16.4136333636        2.0799290888       23.1882818406
  H        10.3287121979        9.3207388641       13.4937741665
  C        11.1830335624        8.0146363180       12.0630675865
  H         3.6373305044       -0.7188717730       37.8178791260
  H         3.8515487552       -2.2248440874       37.0408711732
  C         5.7227279792       -1.2852445955       37.6762538007
  H         1.3091267169        0.0683591873       18.4212087002
  H         2.9518914793       -0.2748050077       19.1158160095
  C         2.2510379579       -1.4822738807       17.3457355169
  H        16.6877864851        2.3638735790       24.1874652986
  H        16.1147737932        1.0716014408       23.2580687700
  C        17.6068708280        2.2974314029       22.2420117039
  S        11.6428637961        6.4961996471       11.4145260878
  C        11.2090346415        9.2278882544       11.1689980860
  H         5.9061313629       -1.9487381639       38.5061915404
  H         6.5462157175       -1.5350278200       36.9906748576
  H         5.9834264502       -0.2633048777       38.0070730227
  H         2.6401895843       -1.3296453177       16.3348848693
  H         1.1795101458       -1.7988871606       17.2734107949
  H         2.7836292712       -2.1526463386       17.9985443817
  H        17.9987116643        3.3079260139       22.0619546610
  H        17.4994352218        1.8785622288       21.2002912291
  H        18.3969052791        1.7095077236       22.7460864551
  C        11.8973483172        7.5050540557        9.9031965302
  N        11.6864906399        8.7947726052       10.0090852426
  O        10.8534008065       10.3856468113       11.4198689374
  S        12.4359049804        6.8425416283        8.4356037374
  C        12.0023896032        9.7450951282        8.9299751609
  H        12.0102326219       10.7022683499        9.2561057535
  H        12.9375036157        9.5344470057        8.3801549795
  C        10.9509890472        9.6937342117        7.7927021117
  H        10.0667896126        9.7088914969        8.2799754807
  H        11.0770850321       10.5546331972        7.1522203592
  H        11.0034801025        8.9167049119        7.0635277992
  H         4.4064723805        0.8173174099       12.5106891493
  C         3.8906051580        1.8910452930       12.4760937599
  H         4.7397627278        2.6217959740       12.5605276849
  C         3.1151111082        2.0981541794       11.2373402239
  C         2.9750635995        2.0375936723       13.7599762216
  C         3.9425919338        2.5076937790        9.9672262831
  H         2.4894218044        2.9223369346       11.4566325557
  H         2.5547528141        1.2606415603       10.9518959629
  H         2.3536724442        1.1875358939       13.9011233257
  H         2.2462887259        2.8265150322       13.6610691688
  H         3.5915996579        2.0262662269       14.6879359459
  C         4.5576618837        1.3171106680        9.2412443309
  H         3.1781129156        3.0040810694        9.3052064672
  H         4.8154499098        3.1270371472       10.1771303818
  C         5.1809764527        1.7547556023        7.8281160482
  H         3.8140767360        0.5550472245        9.0988460994
  H         5.4638700582        1.0459012301        9.8034809585
  C         6.4214794834        2.5976338072        7.8884902573
  H         4.2855217832        1.9814679307        7.2466081254
  H         5.5644388776        0.8751235995        7.4511120236
  C         7.7379107511        1.9620995012        8.3858903919
  H         6.6910699663        2.7935425678        6.7814920962
  H         6.3592755454        3.5315409019        8.2765792932
  C         8.9664842961        2.8670838188        8.7128201974
  H         8.1177241680        1.1404553058        7.8211780178
  H         7.5069712706        1.5086252129        9.3331507837
  C         8.5679549587        4.1819930838        9.3976494190
  C         9.4997031235        3.5792588103        7.5151334186
  C         9.9066029170        2.1396195688        9.7055039899
  C         8.9416476724        5.2620105066        8.6557747331
  C         7.9139112231        4.5804143471       10.5496807959
  C         9.5383873331        4.9370379706        7.4898560702
  C         9.9217052912        2.9245029222        6.3783877489
  H         9.5102982261        1.6082706223       10.4515592565
  H        10.2614176826        1.3194130124        9.1553891990
  C        11.1202381726        3.0110667015       10.1446070825
  S         8.4265489817        6.8341032225        9.3666240998
  C         7.8544589812        5.9431278236       10.7319484148
  H         7.6559426494        3.8026561937       11.3133558479
  C        10.0308593411        5.5836993410        6.4525083145
  H         9.8854311716        1.8160006889        6.3458514540
  C        10.3593404596        3.4987301584        5.3347565464
  H        10.7424542779        4.0000818245       10.6225414237
  H        11.5366634204        3.2826858800        9.1898886793
  C        12.1903167126        2.3491552936       11.0676752141
  C         7.4196972116        6.6470105747       11.9741453502
  C        10.4180538483        4.8653506594        5.3009643594
  H        10.0996422640        6.6372493449        6.4192790749
  C        10.7844210317        3.1322722302        4.1385107311
  H        13.0238663079        3.1934820493       11.0985297779
  H        12.7044659216        1.4882505854       10.6716663324
  C        11.6713669767        2.2614340115       12.4407997207
  C         7.3928977180        8.0369294976       12.2735718447
  C         7.1176206980        5.6681616972       13.1109400155
  C        10.8192280674        5.5976816538        4.0512138832
  C        11.1244712819        4.1904743925        3.3821144621
  S        10.9803661043        1.6957044521        3.3391185011
  H        10.9480838630        3.0883580365       12.7331078885
  H        11.0771508579        1.4007424732       12.4247984279
  C        12.7174519771        2.2114091103       13.5077973266
  N         7.6002299903        9.0532720453       11.3487133344
  C         7.1188816166        8.4906218682       13.5689022816
  C         6.9419500382        6.2069599719       14.3796736975
  H         7.0261598361        4.5840592482       13.0621433556
  C        12.1180356903        6.3513707074        4.2542855003
  C         9.7345307338        6.3669691777        3.2843202557
  C        11.4946867328        3.7580792920        2.0474189051
  C        11.5043269319        2.4211405609        1.9194405889
  H        13.3672392816        3.1304253114       13.6439331866
  H        13.3098854588        1.2274205632       13.3047022161
  C        11.9914823336        2.1308502993       14.8451071131
  S         7.5114971978       10.4345039556       12.1211008126
  N         7.0947918152        9.9317683719       13.5165500658
  C         6.8454462414        7.6828980229       14.7122925869
  H         6.9126452973        5.4667058741       15.2888524288
  H        11.7840701914        7.1652215176        4.8870440297
  H        12.3835922858        6.8551441256        3.2364224218
  C        13.3058506277        5.6332351316        4.8002259705
  H         9.5158336899        7.3827329391        3.6458081600
  H        10.1697767435        6.7819163833        2.4197871631
  C         8.5896753175        5.5405442075        2.7617059681
  H        11.6581553094        4.4523073515        1.2843895513
  C        11.7434202620        1.7116730655        0.6514027857
  H        11.2755940357        2.8778887591       15.0382586585
  H        11.3395947450        1.1819074909       14.8780677851
  C        13.0114212952        2.0197416078       15.9998075806
  C         6.8267368268        8.2787270681       15.9498423677
  H        13.1463185213        4.9872774363        5.8146795430
  H        13.5552190279        4.8150892033        4.0895653803
  C        14.5025640433        6.4846967276        5.0346454895
  H         8.1342021879        4.9309010185        3.4965225798
  H         9.0258419601        4.8388065234        2.0890220120
  C         7.5274584364        6.4679102969        2.1834548131
  C        11.8345826024        0.3189767759        0.5061136466
  C        11.9198332348        2.5842171720       -0.5482169231
  H        13.5650375703        2.8946188312       15.9027735599
  H        13.6143466989        1.1528151759       15.7827273880
  C        12.2992476153        1.9987243203       17.2773375021
  H         7.0378210968        9.3815739557       15.9828080290
  C         6.6196498321        7.7586034931       17.2808287308
  H        14.4467894810        7.0423364090        5.9618717423
  H        14.6966387699        7.1757686697        4.1970535271
  C        15.7824624851        5.7847525383        5.2133809920
  H         6.7738070033        6.9118531478        2.9754049209
  H         7.9704354786        7.3860194471        1.7788664628
  C         6.5908112363        5.8035865731        1.1513346101
  N        11.5459536924       -0.6588359549        1.5185102978
  C        12.1292482213       -0.2550053226       -0.6731049103
  C        12.2681474848        1.9049380606       -1.7231162920
  H        11.7284276006        3.5966192371       -0.6445576738
  H        11.3594670101        1.4674379586       17.1406985389
  H        12.1383627225        2.9889329833       17.5908711017
  H        13.0414714948        1.5733830308       17.9932599570
  S         6.2668082972        6.1561262824       17.6586012224
  C         6.5045081896        8.7485281766       18.3895252894
  H        15.7320013655        5.0982938105        4.3201527653
  H        16.5656085547        6.4758868476        5.1044127356
  C        15.9675864843        4.9761230007        6.5490010304
  H         6.2261009231        4.9498244330        1.6696010221
  H         7.0696162773        5.3890221465        0.2998971340
  C         5.4185461332        6.6305749235        0.5514819697
  S        11.6774124716       -2.1168776519        0.8868868110
  N        11.9972343147       -1.6905025002       -0.6403304416
  C        12.3790106177        0.4284634519       -1.8568385633
  H        12.2511040708        2.3889836151       -2.6037937216
  C         6.0925624569        6.7079010559       19.3662089997
  N         6.2441980683        8.0671858121       19.5579509252
  O         6.6495316541        9.9630777901       18.2068316994
  H        15.7168107859        5.6717519195        7.3458147998
  H        15.2667715805        4.1794522896        6.6347475763
  C        17.3447925392        4.4825297022        6.7936818226
  H         5.4804707485        6.7833677962       -0.4869921918
  H         4.4706072155        6.0228728399        0.7466005431
  C         5.1665887772        8.0927054176        1.1251483029
  C        12.7428325459       -0.2844043262       -3.0652868858
  S         5.6229322064        5.7411720539       20.7090461627
  C         6.0847628713        8.7422334389       20.8921452588
  H        17.4776051241        3.6981881185        7.4280011843
  H        17.4796498194        4.1078256903        5.7795880166
  C        18.3477625004        5.5595327454        7.1583695595
  H         6.1322491524        8.7209718227        0.8497943500
  H         5.0019742849        7.9972516017        2.1160575267
  C         4.0224079939        8.7711982844        0.5048053946
  H        12.5771273171       -1.3469544075       -3.0311485305
  C        13.2986613297        0.0353768375       -4.2454290309
  H         5.3401635301        8.1442488033       21.5019570359
  H         5.6560480210        9.7062496158       20.9111484433
  C         7.4412618778        8.9355026695       21.5861688393
  H        18.8315184017        5.3138926783        8.1750600998
  H        17.7633798115        6.4642944569        7.3690547671
  C        19.4425764716        5.5078541622        6.1554262673
  H         4.1520904131        8.8705191565       -0.5670554123
  H         3.1110290114        8.2755778530        0.9253656677
  C         3.9127873975       10.2165815566        0.9178175376
  S        13.6707741624        1.5970574932       -4.7628345095
  C        13.4856829463       -1.0336957194       -5.3196764108
  H         7.5030847174        8.1907698393       22.3362089574
  H         7.4479255224        9.8712064473       21.9156937718
  H         8.2729625830        8.6422093857       20.8760762519
  H        19.1493938378        5.5722300779        5.1027593714
  H        20.1496708555        6.2349324942        6.4500407961
  H        19.8372069773        4.5475343539        6.3186213883
  H         4.2240180061       10.3546719298        1.9576328523
  H         4.4627762955       10.8917066960        0.2928508845
  H         2.8908531991       10.5625451988        0.6838596929
  C        14.1968993215        0.8181118227       -6.3229121634
  N        13.8818211431       -0.5199271891       -6.4961391579
  O        13.3637404020       -2.2490409212       -5.0464865089
  S        14.8248842094        1.8938090221       -7.6399083679
  C        14.3344935151       -1.1998972083       -7.7086067432
  H        15.3674043340       -1.4847534998       -7.6257106942
  H        14.1558387391       -0.5201005202       -8.4311810054
  C        13.4917110993       -2.4976430097       -7.8873051710
  H        13.9347940543       -3.2514274567       -7.2984743965
  H        13.2575536296       -2.6603361356       -8.8927996055
  H        12.4489979870       -2.2540093318       -7.8479853836
