352
 i =    10100, time =     5050.000, E =       141.1943162241
  H        10.3461559123        4.3485503277       31.9950117630
  C        10.4775946697        5.3884175988       32.2808784081
  H         9.5553699317        5.8250722509       32.2273812552
  C        11.1002364258        5.9687993877       30.9769886983
  C        11.2390001920        5.7371924630       33.5221930773
  C        10.4129297366        5.4977696909       29.6939002313
  H        10.9617733072        7.0153334214       31.1155805975
  H        12.1756508581        5.9805195667       30.8742930333
  H        10.4988480055        5.8201690481       34.3555228409
  H        11.8667843989        4.9165888629       33.8569876355
  H        11.7361522189        6.7496354600       33.5502776314
  C        10.5492876520        6.4778386996       28.5465394065
  H         9.3865813740        5.2736102900       30.0449621313
  H        10.8584598973        4.5316487610       29.4686168811
  C        10.7650550667        5.7181347531       27.2715599466
  H         9.7335580822        7.1418644161       28.5101526268
  H        11.4628572272        6.9722441456       28.8219369428
  C         9.5440568558        5.1356680412       26.6127568851
  H        11.5634478046        4.9411311148       27.2275569391
  H        11.2026555778        6.4935455949       26.5902184073
  C         8.5081544615        6.1376674766       26.0428322305
  H         9.8346319588        4.4881951903       25.8172446136
  H         9.0301917119        4.7132728566       27.4510737619
  C         7.1933306278        5.4919580376       25.4809926110
  H         8.2091181704        6.8775089121       26.7647333484
  H         8.8885819360        6.8421561151       25.2560796603
  C         6.7998370354        4.1297798589       26.1319172931
  C         7.4948802294        4.7223353313       24.1715810378
  C         5.9881367438        6.5216190863       25.2382189539
  C         7.0075432740        3.0346474939       25.3304619539
  C         6.2823968979        3.7481735942       27.4561392635
  C         7.5453077516        3.3490356209       24.1270331782
  C         8.0372861261        5.2372477515       23.0429381978
  H         6.2362426182        7.0813554161       24.3648213402
  H         5.7726640814        7.2627615279       26.0492728643
  C         4.7430930412        5.8920781186       24.7762268892
  S         6.5446014626        1.5789585444       26.1010949452
  C         6.0688700059        2.4273557620       27.5392912177
  H         6.0245405625        4.4940759626       28.1391083960
  C         7.9511093675        2.6058413730       23.0532679252
  H         8.0112890906        6.3084744000       23.0526497908
  C         8.4736687255        4.5939920531       21.9049148390
  H         5.0190871277        5.4017742877       23.7698548174
  H         4.4418769870        5.1855118599       25.5638379099
  C         3.5071926935        6.6290775688       24.4057519596
  C         5.7384567541        1.6370506509       28.7529635253
  C         8.4149103880        3.2092372551       21.8661553167
  H         7.7649254716        1.5805762746       23.0139949431
  C         8.9368365261        5.0210122133       20.6881557995
  H         2.9083863446        5.9907920721       23.8446629039
  H         3.7400221123        7.5818716879       23.8799488768
  C         2.5706067385        7.1494313846       25.6251835084
  C         5.7668677724        0.1925463395       28.8754985705
  C         5.5860438115        2.4756584292       29.9934037489
  C         8.7697673636        2.5717092403       20.6328032733
  C         9.0632202268        3.8682420607       19.8703660584
  S         9.0803041316        6.4715724845       19.8549512118
  H         1.7775686539        7.8029301202       25.5111888604
  H         3.3155408644        7.7654188643       26.3249202460
  C         2.1179639772        6.0052613501       26.5353897609
  N         6.0172978690       -0.7754921871       27.9173033386
  C         5.4997469794       -0.4470094803       30.0883165928
  C         5.2559114445        1.7728632179       31.1779149174
  H         5.6717522157        3.5963329073       29.9879921294
  C         7.6161544879        1.8545859105       19.9360305301
  C         9.9291805149        1.5439906098       20.8035064156
  C         9.5286129424        4.2285880103       18.5928910085
  C         9.5317600699        5.6191512913       18.4252415493
  H         1.3602636271        5.4032161266       26.0315052900
  H         2.9117174870        5.2958103263       26.8794790307
  C         1.3476772589        6.6458319587       27.7865465273
  S         6.1350665265       -2.2298384266       28.6005140924
  N         5.6274440094       -1.8298122657       30.0524726679
  C         5.0823359554        0.3330946286       31.1723527509
  H         5.1874511264        2.3977299555       32.0164577397
  H         7.3233239598        1.0735472706       20.5666919096
  H         8.0337869638        1.3456909062       19.0301381788
  C         6.3314186131        2.6353183150       19.5741179755
  H        10.2279310239        0.8930566999       19.9911820265
  H         9.6621581595        0.8792283873       21.5647071308
  C        11.2746854081        2.3472152017       21.0675990787
  H         9.6864363483        3.5575540971       17.7444187712
  C         9.8739494500        6.4342608701       17.1907210219
  H         0.3305663570        7.0771437587       27.3653696048
  H         1.8255716352        7.4546423291       28.2508842713
  C         1.0637093429        5.6848116290       28.8591926860
  C         4.8307892082       -0.4795969526       32.3530646218
  H         6.5492859123        3.4359435283       18.8355987889
  H         6.0631020473        3.1794657867       20.4562921924
  C         5.2692673073        1.6872915994       19.0558792940
  H        11.0110568987        3.0015578336       21.8481044215
  H        11.4809147029        2.9701084149       20.2132665593
  C        12.4915426350        1.4426047221       21.4906910910
  C         9.9057278857        7.8142590894       16.9947059786
  C        10.1690517992        5.6467191947       15.9335767154
  H         0.0886281594        5.3195658865       28.4451919416
  H         1.8245338259        4.9298680482       28.8034261476
  C         0.7317430053        6.0527906101       30.4087387411
  H         4.9496106277       -1.5664236615       32.2524892414
  C         4.4272953384       -0.1597046605       33.5738451693
  H         5.1240781212        0.8912372308       19.7393089742
  H         5.7243676072        1.2605235041       18.1924848439
  C         3.9466371187        2.3846673984       18.8568514139
  H        12.3596104715        1.0763943093       22.4693297381
  H        12.2055005634        0.5961470419       20.9464499082
  C        13.7802490260        1.9710359574       21.1302495162
  N         9.7868588460        8.7152857016       18.0138964986
  C        10.1508779150        8.4948848727       15.7407936495
  C        10.2341857148        6.3374350180       14.6684023547
  H        10.2788192005        4.5699870361       16.0137490987
  H         0.7226474452        5.3283968208       31.1968695842
  H         1.4543909109        6.8237537453       30.7251712311
  H        -0.2438843290        6.5763581233       30.4870145627
  S         4.2136838311        1.4066928829       34.1953710595
  C         4.3634753011       -1.2277169667       34.5762519231
  H         3.6573396514        2.8865249691       19.6775416726
  H         3.9258418578        3.0926112341       17.9600892628
  C         2.7613755838        1.5286388906       18.5462082494
  H        13.7780172977        2.8243497082       20.3953920324
  H        14.3122223128        1.1895013169       20.5642640014
  C        14.5055306079        2.3420376452       22.3952883452
  S         9.8631492381       10.2245316045       17.4309228954
  N        10.3666644177        9.8516645705       15.9002188294
  C        10.3341004813        7.7677299931       14.5550803483
  H        10.1948705568        5.8730686747       13.7101284039
  C         3.9721958413        0.6228507957       35.8290972994
  N         4.1253947968       -0.6906784237       35.7984597131
  O         4.6209372436       -2.4126806543       34.2967534363
  H         1.7853216670        2.1233095336       18.4977968444
  H         2.6554144634        0.8970507707       19.4286567003
  C         3.1061137039        0.6946255840       17.3220691191
  H        13.9362423227        3.2054083513       22.8826742581
  H        14.5231359445        1.5228206710       23.0841735844
  C        15.8654215203        2.8531779521       22.3124108890
  C        10.5098546417        8.4857742115       13.3521906117
  S         3.8668227517        1.4525611976       37.3664334183
  C         4.3149343969       -1.5055825061       36.9792453451
  H         2.3641195826        0.7977244519       16.5665149443
  H         3.9785524470        0.9753155042       16.9017001765
  C         3.2209855676       -0.8204679370       17.5379017869
  H        15.8935271883        3.9131000338       22.5558407001
  H        16.1372556078        2.6392768521       21.3078472178
  C        16.8728083985        2.1140662361       23.1800441524
  H        10.4681070564        9.4886112703       13.3819099365
  C        11.0385978762        8.2320991857       12.1920881939
  H         3.7227737876       -1.0022189007       37.7494790633
  H         3.9703844646       -2.4793789682       36.9934337740
  C         5.7989713397       -1.6583273346       37.4043082423
  H         3.6526423682       -1.1376144327       18.5727882335
  H         3.9765764871       -1.2182533229       16.7791201738
  C         1.7651465608       -1.5432094316       17.4232932750
  H        16.8168637534        2.4093756133       24.2064755753
  H        16.6019871974        1.0399955799       23.1481752971
  C        18.2551606712        2.1412575909       22.5768548431
  S        11.4027914619        6.6106908789       11.5376438090
  C        11.1495003834        9.3472767905       11.1654712617
  H         6.1889927729       -0.6732568673       37.6951861520
  H         5.7243656397       -2.3586376331       38.2430099275
  H         6.3193743926       -2.1201832912       36.6057691410
  H         1.7964832974       -2.6356435676       17.4730814475
  H         1.2984714562       -1.2935596905       16.5354610609
  H         0.9792758720       -1.1780913034       18.0722367378
  H        18.9271898684        1.9224246036       23.3974480993
  H        18.5884838709        3.0720209067       22.1862879524
  H        18.3273756497        1.4866468959       21.6879851642
  C        11.9594973145        7.4531001770       10.0851632475
  N        11.7808047661        8.8257446853       10.0645409354
  O        10.8133204193       10.5663137310       11.3166493896
  S        12.6894970895        6.8651616489        8.6426855999
  C        12.0544852872        9.6642586784        8.8655999907
  H        12.1566012121       10.6081216424        9.2742171292
  H        12.9512322809        9.4907009205        8.2913934757
  C        10.7777043429        9.7692803504        7.9308233707
  H        11.0249554821       10.0268703119        6.9409582670
  H        10.3101272327        8.7846062899        7.8743262892
  H         9.9677574235       10.3023516975        8.3674211242
  H         3.9820053352        1.3743130007       12.4518046650
  C         3.6546710752        2.3911766555       12.5166513845
  H         4.5320819469        3.0202242624       12.7924731625
  C         2.7987439812        2.7640613343       11.3156498010
  C         2.7908765228        2.4272985384       13.8177793664
  C         3.6117744831        2.9885418812       10.0487195857
  H         2.1562682671        3.5936761812       11.4364992707
  H         2.1830862579        1.8232656385       11.2128551804
  H         1.9797573436        1.7695952223       13.8055968346
  H         2.4921969353        3.4022398091       14.1559171282
  H         3.4284731750        1.9510580569       14.6137424650
  C         4.1552473952        1.7250694532        9.3622040756
  H         3.1068832953        3.7238241787        9.3782124576
  H         4.3688484337        3.6339058442       10.4819582450
  C         4.9739337667        2.0040698969        8.1671972294
  H         3.4330838873        0.9728544695        9.1064607224
  H         4.7637563560        1.1313574994       10.0215991342
  C         6.2526207189        2.9149855821        8.4246352560
  H         4.4220311564        2.5405120905        7.4577145488
  H         5.3069050643        1.0469642273        7.7604830189
  C         7.3529942548        2.1803468202        9.1748528845
  H         6.6685191188        3.1942853538        7.4802815891
  H         5.9374358654        3.7226663441        9.0685519981
  C         8.6873372906        2.9148776083        9.2718909401
  H         7.5564441198        1.1598622245        8.8741139782
  H         6.8356187837        2.1859834921       10.1429069145
  C         8.2496479729        4.2470957704        9.9307888533
  C         9.1452663294        3.6227419522        7.9695322490
  C         9.7132123925        2.1618747899       10.1029580840
  C         8.5707754733        5.3412767146        9.0679064284
  C         7.6027478181        4.5881134558       11.1177502422
  C         9.0651761095        4.9556476651        7.8454851853
  C         9.6524270734        3.0074826865        6.8636636776
  H         9.2067228276        1.8928359251       11.0517426676
  H         9.8117073254        1.2589232158        9.5625748205
  C        11.1073098801        2.9226302124       10.2085946457
  S         8.1486807475        6.8104598843        9.7678914453
  C         7.6659097260        5.9432396736       11.2571939223
  H         7.1409962689        3.7661932864       11.6602993410
  C         9.4784536121        5.6389489294        6.7782766101
  H        10.0496553827        1.9758621574        6.8990466053
  C        10.0185377338        3.6893183494        5.6623209937
  H        10.8934232797        4.0089843500       10.3654070442
  H        11.5114629805        2.9897488247        9.2245631961
  C        12.1866624816        2.3736246940       11.2067743578
  C         7.2590744048        6.7115689536       12.4920176493
  C         9.9799554410        5.0391142059        5.6060308273
  H         9.4527264912        6.7167185428        6.7770681439
  C        10.4746962165        3.2248534918        4.4110434682
  H        13.2135802126        2.7231336406       10.8962360497
  H        12.3643557245        1.3016301080       10.9940277611
  C        11.8714645377        2.5731668047       12.7055940051
  C         7.2580095299        8.1109987710       12.7310000109
  C         6.9496023676        5.8603238429       13.6276436825
  C        10.4135944534        5.6606363177        4.2899692280
  C        10.6859396537        4.2868289878        3.5815793365
  S        10.8261761398        1.7038725925        3.7075514701
  H        12.6436348251        3.0737193708       13.2285807604
  H        11.0661357386        3.2699283767       12.7005984341
  C        11.4619055442        1.3779999018       13.4935604102
  N         7.5783503258        9.0730313014       11.7425626391
  C         7.0170644758        8.6821242923       13.9567006127
  C         6.5621983184        6.4597397001       14.8056696425
  H         6.8949713910        4.7915323668       13.5381124453
  C        11.7220119653        6.4023601398        4.5058158612
  C         9.4626543750        6.3975145344        3.3574010564
  C        11.1322615429        3.8425336820        2.2913881644
  C        11.1986259711        2.5116175389        2.2194809075
  H        12.2875118404        0.6325682428       13.4905217077
  H        10.5096107600        1.0252070526       13.1022871476
  C        11.2803329575        1.8425072200       14.9575182077
  S         7.5070637145       10.5592809526       12.4479078497
  N         7.0113972753       10.0480863996       13.9437769086
  C         6.7223565319        7.8944386471       15.0891805816
  H         6.2650651188        5.7461505100       15.6261744534
  H        11.6237809504        7.0125460569        5.4035114091
  H        11.9528716278        6.9840569720        3.6657138311
  C        12.9493960271        5.5741829139        4.9378529485
  H         9.1057280752        7.4168807541        3.6105517632
  H         9.9995263588        6.5789916054        2.5167628419
  C         8.1763142604        5.6599247220        3.0131356042
  H        11.3952008657        4.5255009186        1.5393586141
  C        11.7029654232        1.7288980003        0.9548922011
  H        10.6275087558        2.7741899261       14.9694634886
  H        10.6539872217        1.1056207719       15.4937591330
  C        12.5638604100        2.1013788798       15.8381209687
  C         6.6833363505        8.5759209663       16.3624207846
  H        12.7302470984        5.0750289457        5.8710173488
  H        13.2885156110        4.7128237456        4.3259663404
  C        14.1376093538        6.4723366840        5.1829752001
  H         7.6707784075        5.1713123742        3.9032777372
  H         8.2419406581        4.8670267595        2.2365573343
  C         7.0969591454        6.7910163264        2.6242856061
  C        11.8565904280        0.2849676937        0.8128690431
  C        12.0153155772        2.4407478982       -0.2795717442
  H        13.2637136094        2.7130751083       15.3191953297
  H        13.1247323968        1.1517755912       16.0482446600
  C        12.2854384985        2.5524550761       17.2899859452
  H         6.7473048789        9.6954209797       16.3776730832
  C         6.3710341994        8.1349394691       17.6128148985
  H        13.9714754033        6.9697931425        6.0959349684
  H        14.2618493694        7.2038377297        4.4257994701
  C        15.5139721280        5.7529228109        5.1120052304
  H         6.7882003709        7.1852519068        3.6078171264
  H         7.6980929776        7.4576938499        1.9007043582
  C         5.8968506531        6.2010608225        1.8594138923
  N        11.6196376855       -0.7211194574        1.7780812883
  C        12.0242100297       -0.3806486416       -0.4109529656
  C        12.2311903271        1.8017676080       -1.5051770389
  H        11.7876088011        3.5185963499       -0.3352034612
  H        13.1560090790        2.5257302310       17.8341141098
  H        11.6565625708        1.8855576353       17.9084415079
  H        11.9270933463        3.6230329894       17.3401670156
  S         6.0799569089        6.5088004986       18.0732647267
  C         6.2255973505        9.0833658203       18.7107282652
  H        15.5371193096        4.8359755339        4.5858159463
  H        16.2288594033        6.3208095260        4.4901217352
  C        16.0386675526        5.5329682967        6.5285890382
  H         5.3540243609        5.6585482077        2.6603476489
  H         6.2759042817        5.6067138084        1.0646104938
  C         5.0250898794        7.3398238512        1.2849428749
  S        11.9024038609       -2.1922901159        1.2484167019
  N        12.2818699717       -1.7590389407       -0.2920244735
  C        12.3832711241        0.3169194412       -1.5863229956
  H        12.3706228576        2.4813660447       -2.3724023518
  C         5.8135604403        7.1369729166       19.6778856985
  N         5.9004596035        8.4758574073       19.8356565328
  O         6.3224876420       10.3004120916       18.6666503650
  H        15.9527062341        6.5337724428        6.9900206597
  H        15.5335402230        4.7320779979        6.9363288884
  C        17.4985768647        5.1365178335        6.6872196682
  H         5.6490062576        7.9745393020        0.6495490964
  H         4.2751753767        6.8221734109        0.6989836150
  C         4.2692486820        8.2790695236        2.2201860476
  C        12.7493043473       -0.4422376391       -2.7197697470
  S         5.3566701125        6.0869403412       21.0336423888
  C         5.7297089120        9.1955262745       21.0639282835
  H        17.6087207121        5.0429060727        7.7702936662
  H        17.5859586920        4.1383090929        6.2558578275
  C        18.5299030359        6.1262179120        6.0818441167
  H         4.9861209070        8.6620982700        2.8149015629
  H         3.4676600207        7.6045912919        2.6045734892
  C         3.3927102743        9.3040131206        1.4998959947
  H        12.7304254085       -1.5350635595       -2.6844162067
  C        13.2351286139       -0.0114284720       -3.9227331147
  H         4.9524987868        8.6993072774       21.6437537680
  H         5.4613991634       10.1007318598       20.8306005483
  C         7.1224365138        9.1439645719       21.7529007176
  H        17.9814148112        7.0572125197        6.0158440045
  H        18.6552546062        5.7910541381        5.0513306905
  C        19.8878548093        6.0099200066        6.8589993559
  H         2.8909179973        8.8188828414        0.6777563060
  H         2.5727755991        9.6223297007        2.1812823380
  C         4.3015608345       10.3433960710        0.9314959585
  S        13.7930709822        1.5751471992       -4.3730434480
  C        13.5127714393       -1.0088831710       -4.9709442598
  H         7.1674711429        8.6115380190       22.7535813602
  H         7.5773756596       10.1336044137       21.7194377230
  H         7.7192308924        8.5471714624       21.0932863688
  H        20.4535704085        6.9262498977        6.7910607596
  H        19.7876310259        5.7670866088        7.9363898201
  H        20.4191972395        5.2400002195        6.2421516044
  H         3.7462392828       11.1720668466        0.4354517575
  H         5.0091196128       10.6037467770        1.6941470467
  H         4.9137232627        9.8909018839        0.1441267072
  C        14.0373330577        0.8822284489       -6.0464064227
  N        13.9033746047       -0.4352271611       -6.1402745429
  O        13.1553608002       -2.2339024078       -4.7524665256
  S        14.3718410380        1.7500805214       -7.4510106414
  C        13.9557829255       -1.2231522834       -7.4079228520
  H        14.2808528069       -2.2672764842       -7.1608271636
  H        14.7542910044       -0.8566462799       -8.0754454272
  C        12.5349344498       -1.3223689571       -7.9680960826
  H        12.3529166272       -2.1954671516       -8.5905330667
  H        12.2210973182       -0.4576136700       -8.5502382212
  H        11.7732117693       -1.4375438962       -7.1228586939
