352
 i =    41800, time =    20900.000, E =       100.3605693329
  H        10.8285388171        4.8055896448       31.7232584170
  C        10.5461455329        5.8236611391       31.9426732686
  H         9.3873514917        5.8106691629       31.9246227749
  C        11.1584995201        6.8509711280       30.9458343774
  C        10.9356718565        6.0070372422       33.4023609924
  C        11.6379239358        6.1881888688       29.6106646046
  H        10.7092729508        7.8967495003       30.8518893996
  H        12.1509724862        7.0803272444       31.3779564811
  H        10.2439879171        6.6752429880       33.9425597782
  H        10.6899549597        5.0346074209       33.9427798683
  H        12.0206328331        6.2643025832       33.5154882586
  C        10.4942033956        5.8023165256       28.6381825218
  H        12.2257498517        5.3663587999       29.9963503088
  H        12.3501702664        6.8088979284       29.1446705999
  C        10.7566202479        5.6668991560       27.1332713977
  H        10.1344448229        4.8558946362       28.9306899758
  H         9.5428035472        6.4005832928       28.8401745597
  C         9.5045347057        5.1019330994       26.4146875788
  H        11.4754268652        4.8764660242       26.8751238401
  H        11.2104861867        6.5681924426       26.7386029515
  C         8.3551209209        6.0145104098       26.2474474235
  H         9.8745525410        4.9572145631       25.4233020566
  H         9.2265469658        4.1099990619       26.7540178619
  C         7.3091566805        5.2559713069       25.4373553562
  H         8.0808121473        6.3819586951       27.2801837078
  H         8.7237460974        6.8714786964       25.6928093923
  C         6.9328628526        3.9162087253       26.1520991940
  C         7.6845421169        4.6027968431       24.1806844155
  C         6.1126221571        6.1998247176       25.2136481869
  C         7.1360513973        2.8695530852       25.2912477809
  C         6.5445824194        3.4662532567       27.4590700854
  C         7.6151539154        3.2442618722       24.0555453288
  C         8.0837867716        5.2884194207       23.0141173475
  H         6.4988390980        6.9464629806       24.3865732337
  H         5.8763291583        6.7398959582       26.1575937320
  C         4.8415176332        5.4610707307       24.6512696543
  S         6.8126138767        1.3438969252       25.9568677144
  C         6.3463564030        2.1013318039       27.5218958257
  H         6.5179201190        4.1338282892       28.2889521705
  C         8.0230538082        2.5930815483       22.9166427071
  H         8.0588195785        6.3711910579       22.9895426312
  C         8.4551858898        4.6382454963       21.8452926072
  H         4.9802691383        5.2764747613       23.5919020212
  H         4.6853241446        4.5031183628       25.1655379994
  C         3.5623555882        6.2860124842       24.7440067653
  C         5.8271019750        1.3480421224       28.7412867519
  C         8.5072582448        3.2404486332       21.7879699864
  H         7.8359140213        1.5414917197       22.9472774966
  C         8.9201297385        5.0457841684       20.6153634451
  H         2.7837519180        5.7294276373       24.1305371131
  H         3.5464218411        7.2876980657       24.2063116559
  C         3.0466852947        6.3699278722       26.1624534517
  C         5.8438245207       -0.0610755763       28.9102330403
  C         5.4271658140        2.1207332035       29.9164710980
  C         8.9593009605        2.6144921907       20.3993150229
  C         9.2421736825        3.9952791046       19.8044509187
  S         9.2618600667        6.5255130818       19.8333977968
  H         2.2330335443        7.0692480767       26.2119428394
  H         3.6945594397        6.7318929336       26.9402961461
  C         2.4499837894        5.0936250689       26.8521837251
  N         6.1991315408       -0.9770657160       27.8803656600
  C         5.5652808757       -0.6635099537       30.1599959868
  C         5.0989524976        1.6024772610       31.1951455166
  H         5.3660114108        3.2104972090       29.7691847000
  C         7.9538641301        1.6203311557       19.6665666709
  C        10.2481656673        1.8622073135       20.7009977518
  C         9.6504354204        4.4749542038       18.5262636915
  C         9.5656392441        5.7784325614       18.3821434013
  H         2.0191077162        4.4436752910       26.0723911719
  H         3.2960510774        4.5577259311       27.3223432862
  C         1.3734212522        5.3866187315       27.9122968103
  S         6.3048330877       -2.4513615128       28.6034370397
  N         5.8997807075       -2.0453983345       30.1533668636
  C         5.2205789738        0.0965586882       31.3596190967
  H         4.6771732836        2.2444062193       31.9189586098
  H         7.8051920184        0.8280056047       20.3799996316
  H         8.3758776090        1.0652979498       18.8510921182
  C         6.6226978977        2.1834276550       19.3261224558
  H        10.6197438674        1.4170215572       19.8117772728
  H        10.0839344579        0.9895947564       21.2961562596
  C        11.4457105479        2.6644787874       21.2246121001
  H         9.8134022900        3.7045431204       17.6828583842
  C         9.9939297662        6.5416499996       17.1936552231
  H         0.5851869467        4.7595085508       27.8344513711
  H         1.0004732636        6.3951002811       27.8548688429
  C         1.9337928774        5.2045958064       29.4036068518
  C         5.0372035165       -0.5404898881       32.6077661054
  H         6.6567423346        3.2075527739       19.6722506511
  H         6.1126674774        1.7134161407       20.1396488445
  C         5.9145650200        1.9696918857       17.9151519905
  H        11.1834939984        2.9033609549       22.2528657489
  H        11.5478866846        3.5580512441       20.6657974970
  C        12.8042454162        1.9681752417       21.2848418068
  C        10.0280146911        7.9570994264       17.0998317936
  C        10.3187446972        5.7660007706       15.9593692965
  H         2.6110285820        4.4062579270       29.5865173501
  H         2.5101183346        6.1319835232       29.5694050656
  C         0.8573662454        5.2635482719       30.4295950242
  H         5.0883767588       -1.6045250767       32.4064762631
  C         4.8256995158       -0.1388107402       33.8692860333
  H         6.2426528767        1.1003169648       17.4197594004
  H         6.3634881795        2.8446504965       17.3987631958
  C         4.4130989428        2.2274809021       17.9243853346
  H        12.6489562736        0.9206657572       21.6169405888
  H        13.2479497843        1.9591407690       20.3367276778
  C        13.7999349019        2.6869125287       22.2270596191
  N         9.7747920428        8.8415752374       18.1465787945
  C        10.2660599559        8.5535512634       15.8884406554
  C        10.6082619135        6.4106788858       14.7660966351
  H        10.3737077500        4.6894105800       15.9766260091
  H         1.2070202369        4.6062950388       31.2891817513
  H         0.7687809126        6.2649730929       30.7722322331
  H        -0.1089868031        4.9220146755       30.0585475604
  S         4.5657950284        1.5414705691       34.4226107130
  C         4.7797620092       -1.1478690553       34.8915133656
  H         4.2624138078        3.0429830299       18.5855386697
  H         4.0027550131        2.6367340524       16.9593369253
  C         3.6622606507        1.0473492112       18.4965908291
  H        13.3088598262        3.2169659399       23.0156522496
  H        14.3173518358        3.4788585999       21.6560202998
  C        14.9959546091        1.7964372548       22.5915484269
  S         9.9620784934       10.4092698182       17.5278661295
  N        10.2221072355        9.9518537099       16.0114745960
  C        10.6340034893        7.8801321862       14.6842853496
  H        10.8964000382        5.7462124042       13.9392095227
  C         4.2967197264        0.7612215944       35.9875361289
  N         4.4762641127       -0.6018842898       36.0685409598
  O         5.0633330437       -2.3484241665       34.7373585216
  H         2.6221700327        1.3069883811       18.8080393026
  H         4.0717803639        0.6492021373       19.3865462566
  C         3.6501333968       -0.2207942869       17.5815486049
  H        14.6845410513        0.9739426235       23.1926602442
  H        15.3730608570        1.3888733794       21.6910269901
  C        16.0811929847        2.5668706116       23.3204105713
  C        10.8230448300        8.5770467366       13.4739160043
  S         3.9298817836        1.5223540744       37.5186443629
  C         4.4982620478       -1.4441621452       37.2170835959
  H         3.4637580710        0.0906738807       16.5771137170
  H         4.5778658080       -0.6294325086       17.5984985985
  C         2.5690828135       -1.2160441834       18.0090828288
  H        15.6499996589        2.9336259400       24.2191461924
  H        16.4843942476        3.3753381149       22.8333009857
  C        17.2567122228        1.6362576180       23.6885065230
  H        10.2636909147        9.4531628714       13.5204999037
  C        11.2223108130        8.2012708844       12.2200676053
  H         3.8128790698       -1.0963384828       37.9456960698
  H         4.3147678254       -2.4771244120       36.9682534483
  C         5.9327888837       -1.3981190399       37.8310484564
  H         1.5799542223       -0.8083672352       18.0058266364
  H         2.7230462260       -1.4101769593       19.0633866861
  C         2.6160365509       -2.4751564148       17.1481220145
  H        17.7420980241        1.9486849581       24.6610151152
  H        16.8595788043        0.6504118311       23.7708043895
  C        18.2222214382        1.6057353803       22.5707458806
  S        11.7449458061        6.6225528514       11.6518630569
  C        11.1433006358        9.2308871781       11.1675409927
  H         5.9582806714       -0.6844284799       38.6876151408
  H         6.4999779288       -2.3034503055       38.0786206879
  H         6.5208520561       -1.0029756913       36.9784898480
  H         2.3000246418       -3.3835703396       17.6943940291
  H         3.6464658905       -2.5120118852       16.9192923497
  H         2.1097422313       -2.3514935795       16.1479935453
  H        19.0873975323        0.9626421941       22.8994575666
  H        18.6071418252        2.6303425728       22.4200226178
  H        17.6977250240        1.2745868188       21.7282965038
  C        12.0453078164        7.3745607737       10.0665068211
  N        11.7091320451        8.6814871318       10.0420379736
  O        10.7957357974       10.3951325287       11.3404182656
  S        12.6464240389        6.6722273685        8.5289370306
  C        11.7808228515        9.5437249736        8.8419558260
  H        11.6180889703       10.6058545010        9.0083215488
  H        12.7774904411        9.5534994217        8.3959919164
  C        10.6381864782        9.2366301146        7.8696733136
  H         9.7575965549        9.0127548879        8.3916869730
  H        10.4540384868       10.0822779692        7.1784978365
  H        10.9026467467        8.4206417720        7.1221285724
  H         4.6803232715        1.5670716893       12.3855927890
  C         4.0832309603        2.4261435670       12.7506814242
  H         4.6627069418        3.2934396798       12.5128166056
  C         2.9850914165        2.4049053821       11.7483947865
  C         3.5711274661        2.2292645570       14.2103920738
  C         3.6361766294        2.5276375598       10.3272018060
  H         2.2495813299        3.1663167620       11.9398518782
  H         2.4403780473        1.4470481858       11.7570707192
  H         3.4251523799        3.1851583723       14.6279799572
  H         4.2274549745        1.6235227367       14.9430479015
  H         2.5807863711        1.7584426882       14.1826964019
  C         4.2922742457        1.2115316828        9.8285798681
  H         2.8902522883        2.8129934150        9.6378839535
  H         4.3279383900        3.3963042497       10.2829147728
  C         4.9318397620        1.4696684278        8.4663530860
  H         3.4247807795        0.4861373202        9.7140316826
  H         5.0706076515        0.8382592545       10.4723111521
  C         6.1131649253        2.4465362080        8.3776943411
  H         4.0890656983        1.9473747468        7.9798597781
  H         5.0657559730        0.6003495795        7.8412211926
  C         7.4313645477        1.7284108533        8.6746611806
  H         6.1421348729        2.7969895356        7.3804743053
  H         5.9811871041        3.3591624262        9.0018365395
  C         8.6763339680        2.6289252480        9.0369572846
  H         7.6748469500        1.2167819259        7.8154988835
  H         7.2344531462        0.9276300778        9.4175586671
  C         8.3802559247        4.0095892074        9.6663516571
  C         9.1762579903        3.3303085759        7.8174563283
  C         9.7991536802        1.8548466441        9.7893238359
  C         8.6154037015        5.1074032188        8.8743687581
  C         8.0458195302        4.4184576067       10.9661977847
  C         9.1835564872        4.7007575623        7.6900279761
  C         9.6785767828        2.7640276107        6.7109138270
  H         9.3236542706        1.4496810051       10.7177526873
  H        10.1212970080        1.0562285169        9.0788138318
  C        11.1174720852        2.7173823374       10.0943388975
  S         8.1594493530        6.6174609497        9.5975689380
  C         8.0043097438        5.8277992859       11.1390901197
  H         7.9277808435        3.6613059673       11.6326185949
  C         9.6810958330        5.3664996757        6.6036549309
  H         9.7129249090        1.6958401431        6.6636429063
  C        10.1390886104        3.3265387180        5.5587010257
  H        10.9269702282        3.7271299292       10.4406066419
  H        11.7644299248        2.8540825969        9.1776057299
  C        12.0301947041        2.1151583373       11.1032536306
  C         7.6754701734        6.5684675131       12.4367212591
  C        10.1438981756        4.6864791626        5.4563529368
  H         9.6307123540        6.4054546612        6.4286211170
  C        10.5505481848        2.8961744041        4.2805717611
  H        13.0336053368        2.0594273012       10.7737467196
  H        11.6799646749        1.0790702109       11.2713733884
  C        11.9152206072        2.8544800052       12.4554022683
  C         7.6475506113        7.9967644776       12.6945288509
  C         7.5768990036        5.7145743467       13.6484397917
  C        10.5254992982        5.3776625407        4.1216404477
  C        10.8622902790        4.0095574682        3.4583478193
  S        10.8798436275        1.4201932805        3.5313651514
  H        12.5548076851        3.7056400304       12.6047355150
  H        10.8854333543        3.1213988635       12.6105659761
  C        12.3460765060        1.7742334451       13.5010363524
  N         7.9028881686        8.9987986206       11.7333174699
  C         7.3258577270        8.5184971554       13.9055660972
  C         7.2876947220        6.2971555106       14.9266655206
  H         7.8037433450        4.6738148018       13.5028664195
  C        11.8507318629        6.2274295732        4.2915926555
  C         9.5044212046        6.1652925400        3.2531756420
  C        11.3177105971        3.6259950393        2.2175161664
  C        11.3298834174        2.2299765411        2.0701304150
  H        13.3895612200        1.4522052022       13.2657264394
  H        11.7622447974        0.8478976947       13.4117963858
  C        12.4273427947        2.2201074114       14.9231578638
  S         7.7382750817       10.4381549484       12.4072176586
  N         7.3496990520        9.9280308875       13.8908307673
  C         7.1051151768        7.8120879694       15.0847715444
  H         7.3453258586        5.6755810628       15.8022576107
  H        11.6145997579        7.1058052224        4.8691141185
  H        12.0662998977        6.5776991617        3.3271380343
  C        13.0279318746        5.4026494345        4.8806296769
  H         9.0633882785        7.0391299319        3.7198420091
  H        10.0697281591        6.4835702124        2.4210221776
  C         8.2977032550        5.2701678833        2.8592351353
  H        11.4686330691        4.4206589473        1.4542753580
  C        11.7425523351        1.5426302305        0.7908893302
  H        13.4974315390        2.5624287089       15.0640060263
  H        11.8178662381        3.1803437645       14.9922667828
  C        12.0643634562        1.3057445257       16.0784758688
  C         6.8996215345        8.4611521804       16.3947053007
  H        12.8182123830        4.9133263522        5.8098877692
  H        13.2372274464        4.5379342724        4.2189222552
  C        14.3128246093        6.2800098094        4.9168381690
  H         7.9241750383        4.7253966183        3.7465422224
  H         8.4912718317        4.4720665900        2.1487246351
  C         7.2438068263        6.0383005704        2.0574095806
  C        11.7856224226        0.1405995189        0.6317618442
  C        11.8374117092        2.3677182843       -0.4589626208
  H        12.4765762151        0.3831294188       15.8656016346
  H        10.9836053632        1.1635171958       16.1521485330
  C        12.6417554487        1.8336122641       17.3636161495
  H         6.8859504022        9.5966783642       16.3934433143
  C         6.5008264586        7.9585335926       17.6258085117
  H        14.3323020231        7.0431732563        5.6124276679
  H        14.4372856893        6.6979072283        3.8877958217
  C        15.5932361330        5.4323530548        5.2656041075
  H         6.9910782882        6.8059900649        2.7643694811
  H         7.7079994442        6.5276366485        1.1826991356
  C         6.0928520541        5.2012585849        1.6935003844
  N        11.4793576215       -0.7871895219        1.6245456496
  C        12.0414748408       -0.4398825693       -0.5664696310
  C        12.2265515943        1.8076324844       -1.6508093656
  H        11.6646287368        3.4480053932       -0.4600798921
  H        11.9033464923        2.2857700548       18.0186313740
  H        13.5223481968        2.5268370570       17.3002722747
  H        13.1829771410        1.0453187485       17.8726702712
  S         6.0558460978        6.3865306979       18.0858462090
  C         6.4914964235        9.0356351667       18.6487000441
  H        15.1741624659        4.4029339124        5.1776974825
  H        16.3785264595        5.5731657456        4.4920709204
  C        16.1048531755        5.8399945192        6.6554737429
  H         5.8790438705        4.5954758778        2.5584948396
  H         6.2382700182        4.6155441398        0.8098030716
  C         4.8124955624        6.0045699750        1.3508732142
  S        11.4298734111       -2.2625031753        0.9635376346
  N        11.8320491259       -1.8364027405       -0.5723843261
  C        12.3097572334        0.3498721393       -1.7200153798
  H        12.0987384274        2.4778311037       -2.4932989629
  C         5.8596490575        7.1386263798       19.6766712238
  N         6.1374824889        8.4680406132       19.8332765838
  O         6.7347562720       10.2469795889       18.4885575675
  H        16.5141878508        6.8442288167        6.7070872057
  H        15.2247576321        5.7031408857        7.3122101911
  C        17.1126010197        4.8935547356        7.2056614701
  H         4.7153344404        6.4146841092        0.3578896027
  H         3.9861221439        5.3099221087        1.3894899087
  C         4.4028220670        7.1366624180        2.3044960724
  C        12.5254212708       -0.3252565135       -2.9359279221
  S         5.5520628996        6.1704184257       21.1822482262
  C         6.2558403247        9.2028847887       21.1030604492
  H        16.7837442618        4.7392811376        8.2083899399
  H        17.0651221851        3.9386632970        6.6539928462
  C        18.5624783513        5.4071325508        7.2682002875
  H         5.0265742026        6.9415967475        3.1097347887
  H         3.4450597069        6.9313831513        2.6748133627
  C         4.5696575075        8.6039420436        1.8425884706
  H        12.2571456798       -1.3434351177       -2.9692350687
  C        13.1143313251        0.0477803138       -4.1037376254
  H         5.8740032796        8.6756296846       21.9939611517
  H         5.6966164347       10.1363584587       21.1257395789
  C         7.7240001982        9.5221795798       21.4235274094
  H        19.1206627683        4.6385778723        7.7791851399
  H        18.6174862921        6.3495940219        7.8117646337
  C        19.1506055084        5.5976838952        5.8612916862
  H         5.0104113529        9.2350427580        2.5987195240
  H         5.3151397209        8.5368111398        0.9917754978
  C         3.2443598758        9.1759747892        1.2487111895
  S        13.7466954315        1.5639388399       -4.5001030205
  C        13.2657433124       -1.0117622849       -5.1391131133
  H         7.9881422729       10.5540045043       21.3017682075
  H         8.4265997129        8.9005099607       20.8109637704
  H         7.9257891779        9.3296897648       22.5084042962
  H        19.0646196095        4.7643778688        5.1898184645
  H        18.5723130535        6.4851782839        5.4605153199
  H        20.1930063125        5.8469102035        5.9941766789
  H         3.3866901928       10.1627277849        0.8345910024
  H         2.8769304155        8.4662781977        0.5299924341
  H         2.5427130539        9.3235064210        2.0296308840
  C        14.1779226567        0.8007358551       -6.0926157064
  N        14.0218088249       -0.5194503925       -6.2004728884
  O        12.9018463715       -2.1764022910       -5.0911885450
  S        15.0676939137        1.6301420687       -7.2870536916
  C        14.2235054202       -1.3397094394       -7.4307025910
  H        14.5992708292       -2.3348315693       -7.2554161902
  H        15.0010670925       -0.8421585099       -8.0428326471
  C        12.9952761362       -1.4902569664       -8.3245785048
  H        12.0728126922       -1.1753822856       -7.7717564362
  H        12.8006022370       -2.4385206547       -8.8075813619
  H        13.0903885796       -0.7923342374       -9.1761241387
