352
 i =    82900, time =    41450.000, E =        99.2148284163
  H        11.9220780742        7.1646472797       32.5911657313
  C        11.6832369134        6.1030358906       32.6013377933
  H        12.5560840072        5.5749811033       32.5739978405
  C        10.7912132040        5.8022715753       31.3667813666
  C        11.0676239919        5.7305542436       33.9442931830
  C        11.4096822192        5.7752856696       29.9227189522
  H        10.3699453010        4.8374937109       31.5682966384
  H        10.0421899337        6.6546265348       31.2655389279
  H        10.1123481089        6.2050568272       34.0841219307
  H        11.0023193651        4.6195046121       33.8004445073
  H        11.6801959563        5.8999278795       34.8297940115
  C        10.2825288635        5.5114493141       28.9608734213
  H        12.1986553456        4.9474507891       29.9227847197
  H        11.8617799297        6.7555355246       29.8340897853
  C        10.5915712632        5.6711292601       27.5426490822
  H         9.9267791291        4.4846313728       29.0291039493
  H         9.3675024551        5.9824985749       29.2731220454
  C         9.5366466121        5.0648288719       26.5409110144
  H        11.5755789965        5.2713880721       27.3723328971
  H        10.6499246055        6.7745222100       27.4412202666
  C         8.1692002232        5.8322591300       26.3805539207
  H        10.1389358738        5.0533411744       25.6380005537
  H         9.5740221313        3.9695922165       26.8265416625
  C         7.1082681459        5.0732302322       25.5107394781
  H         7.7772900034        6.1726252304       27.3661109635
  H         8.3108386195        6.7812996335       25.8050111086
  C         6.7715637892        3.7804944825       26.1830397369
  C         7.6027044880        4.3894768292       24.2597813290
  C         5.8536381362        5.9788942355       25.2693728564
  C         7.1412888848        2.7145979665       25.3550027462
  C         6.0849772480        3.4136387392       27.4041789475
  C         7.5999928252        3.0581716796       24.1135415382
  C         7.9995080800        5.0656103973       23.0841042228
  H         6.1439484492        6.7345756859       24.6756560848
  H         5.6239381429        6.5397571754       26.1352561202
  C         4.6658478329        5.1780991742       24.7171324733
  S         6.8077850369        1.1727628324       26.1024016036
  C         6.1490676341        2.0521709770       27.5034517061
  H         5.9128480437        4.1766595759       28.1467702616
  C         7.9414290019        2.4897184677       22.9610044027
  H         7.9288067905        6.1431410288       23.2041949747
  C         8.3490258618        4.5104514373       21.8816833946
  H         4.9183614857        4.9162358535       23.7415482658
  H         4.3829578372        4.2527601341       25.2572124288
  C         3.4698238308        6.1401634818       24.7775451693
  C         5.7835456587        1.3351707442       28.7466876838
  C         8.4013604071        3.1457886341       21.8124300504
  H         7.8215449529        1.4281717678       22.9112009617
  C         8.8228401022        4.9985571597       20.6824503420
  H         2.6958730265        5.8390080845       24.0790949131
  H         3.6089650221        7.1664497659       24.4108125038
  C         2.7781058160        6.3363757671       26.0757983455
  C         5.7409441732       -0.0325805555       29.0079233594
  C         5.2619561574        2.0690865846       29.9359630796
  C         8.9213224424        2.5002239970       20.5412605816
  C         9.1718043280        3.9287429812       19.8162875574
  S         9.1677395377        6.5277584181       20.0310388594
  H         2.1227269933        7.2086660330       25.9689612909
  H         3.4484941020        6.5319169153       26.8796033003
  C         1.9499349985        5.1330070147       26.4726875345
  N         6.0353789779       -1.0114842666       28.0173436561
  C         5.3860474251       -0.6617294313       30.2081526453
  C         4.9479649347        1.4857884725       31.1313163136
  H         5.0853097221        3.1407513491       29.8481528673
  C         8.0122504186        1.6784418784       19.6654836859
  C        10.2216409569        1.6664649419       20.8250778936
  C         9.4849443720        4.4220361956       18.5200822920
  C         9.5049011838        5.7660417151       18.5420372233
  H         1.2549722923        5.0599705213       25.6213065862
  H         2.5377784497        4.2241233250       26.4610683833
  C         1.1749006704        5.3124902459       27.8015820059
  S         6.0276499847       -2.4950211654       28.6994001576
  N         5.4685280722       -2.1144128473       30.1477265633
  C         4.9958919020       -0.0035332406       31.3581464474
  H         4.5546203661        2.1618715068       31.9389306663
  H         7.9794779488        0.7752230750       20.2063691973
  H         8.4357671278        1.2509360568       18.7304599258
  C         6.5952591913        2.1781284755       19.5769151958
  H        10.3932601397        0.9323624678       20.0132705547
  H        10.1442259129        1.0622928205       21.6901364082
  C        11.4128160427        2.5321936442       21.2270655835
  H         9.6695857786        3.6960274536       17.7175359503
  C         9.9012044298        6.5639988515       17.3864480644
  H         0.4676007741        4.5504462535       27.8943647210
  H         0.5969911533        6.1814978857       27.7292419356
  C         2.1350941733        5.1252363920       28.9945567806
  C         4.7321058964       -0.6878422004       32.5772777343
  H         6.6051923532        3.1946768797       19.9946941308
  H         6.0294973682        1.6170537666       20.2839514580
  C         5.9971825193        2.0483187622       18.1482784608
  H        11.1957328583        3.2089152605       22.0390561951
  H        11.6442964388        3.1859482076       20.4795895759
  C        12.5516642876        1.5566270204       21.4602249717
  C        10.0308784496        7.9361458797       17.3977205989
  C        10.2744617642        5.8100331226       16.1799507038
  H         2.6547300772        4.2159948147       29.0200064503
  H         2.8684558493        5.9519030639       29.0497268442
  C         1.4987597051        5.1428649055       30.4346106550
  H         4.5817252159       -1.7817837011       32.5365002785
  C         4.5006219043       -0.2289848270       33.8562575086
  H         6.3409053435        1.0946158834       17.6558763518
  H         6.2919969095        2.9023153561       17.5317173753
  C         4.4905386966        1.8682229330       17.9319245156
  H        12.3975543598        1.0127876201       22.3898497845
  H        12.6410816965        0.8085704524       20.6433782385
  C        13.9025612718        2.2823785953       21.5514678319
  N         9.6924172037        8.8248060733       18.4546196799
  C        10.3000822188        8.6356128124       16.2678523248
  C        10.5601324071        6.5586342024       15.0590059230
  H         9.9878468136        4.7747874917       16.0589782818
  H         0.9162428548        4.2763390530       30.7812057419
  H         2.1661845683        5.4465270151       31.2394729538
  H         0.7984059556        6.0240165746       30.3429581616
  S         4.3243638298        1.3980170751       34.3914937208
  C         4.4721108158       -1.2085532762       34.9796703876
  H         4.0000118451        2.7038505799       18.4902192662
  H         4.2302768625        1.9924560020       16.8404828345
  C         4.0619331666        0.4500884323       18.4132435244
  H        13.7411145088        3.2474592743       21.0866247287
  H        14.7603479392        1.8602312921       20.9464679857
  C        14.2901176850        2.3978774098       22.9996986169
  S         9.9195638156       10.3504012708       17.9559565741
  N        10.2556740954       10.0728511391       16.4150743441
  C        10.5066681804        7.9897877898       15.0347328941
  H        10.9703879254        6.0062422723       14.2425469583
  C         4.1493998721        0.7418481386       36.0512099099
  N         4.1975572023       -0.6235596805       36.1283268267
  O         4.4853909621       -2.4277508178       34.8495884359
  H         4.6284707756        0.2766174888       19.3014274843
  H         4.3815936076       -0.3255425878       17.6982574253
  C         2.5391831695        0.3785668245       18.5294506094
  H        13.3324633944        2.6528224788       23.4529028591
  H        14.5541809187        1.4486580014       23.5032901100
  C        15.3526369813        3.4696410056       23.2479133756
  C        10.8705265512        8.8360557435       13.8757588317
  S         3.7454405462        1.6287400933       37.4903035107
  C         4.0459820927       -1.4098552813       37.3812950090
  H         2.2046280816        1.2396144536       19.2083235510
  H         2.2039548223        0.5050997232       17.4914056025
  C         2.1310482849       -0.9406013175       19.1448854760
  H        15.1935700663        3.8262586992       24.2160363190
  H        15.1842377735        4.2909373551       22.5644915115
  C        16.7432012754        2.8301692453       23.0681544326
  H        10.6236906264        9.9268846810       13.8820465219
  C        11.2919888194        8.4609299440       12.6339834182
  H         3.4026805376       -0.9907811574       38.0893641488
  H         3.6999203907       -2.3876853160       37.0950829923
  C         5.4658750101       -1.6030254048       37.9349660770
  H         1.1341516543       -0.8723224216       19.5953614860
  H         2.8432657897       -1.2537807002       19.9492004679
  C         2.1531728681       -2.0248004374       17.9958256991
  H        16.4651569342        2.0815679713       22.3259547580
  H        17.4102798059        3.6273587589       22.6184144855
  C        17.2605629180        2.1399769122       24.2858236839
  S        11.8143991113        6.8945025513       12.1937673702
  C        11.3145982110        9.4681155652       11.5259570552
  H         5.4531437507       -2.0490898748       38.9336336529
  H         6.1143195514       -2.2064945901       37.3304990858
  H         5.8780103028       -0.6297018853       37.9361956756
  H         1.7305427848       -1.6416233229       17.0922030272
  H         1.6653303159       -2.8986864819       18.3241193509
  H         3.1540572230       -2.3048364349       17.7642874486
  H        17.2237496258        2.7937867120       25.1763417588
  H        18.3472152523        1.9817676949       24.1868335332
  H        16.8137933530        1.1721383525       24.3842834324
  C        12.2992086099        7.6254114696       10.6517070882
  N        11.8874787729        8.9184832775       10.4547135762
  O        10.7831948860       10.5969225298       11.6220688579
  S        13.0550080865        6.8211816876        9.2270626634
  C        11.8965209992        9.6816730519        9.1901768756
  H        12.1965528834       10.7561786627        9.3955460651
  H        12.6116004735        9.4051236742        8.4708017365
  C        10.5181905595        9.5753160552        8.5479927173
  H        10.6202040774       10.1203635247        7.5810436226
  H        10.1698377152        8.6380193446        8.3208610645
  H         9.7932478806       10.1353750775        9.1922420197
  H         2.5054053517        1.0343701323       12.7308838415
  C         3.3112654507        1.7763210421       12.7532872773
  H         4.2158799811        1.1523441080       12.7928700303
  C         3.4040797810        2.7641431408       11.5426246214
  C         3.1639875718        2.4318112826       14.1228672649
  C         4.7194179357        2.6947671845       10.6764328850
  H         3.3820422073        3.7348525327       11.9556155156
  H         2.5481291983        2.6852787904       10.9404683978
  H         2.8845224565        1.7025219638       14.8614798156
  H         2.2138390076        3.0164028709       14.1639300386
  H         4.0030530507        3.0873619532       14.4655021971
  C         4.9495518126        1.3102691681        9.9960013612
  H         4.5924897901        3.3980803341        9.8488107611
  H         5.6464073840        2.9278445468       11.2200482089
  C         5.6864596549        1.4533427092        8.6519454467
  H         4.0230155432        0.7653666820        9.8226726129
  H         5.5652809593        0.6389152796       10.6481139869
  C         6.8860926500        2.4350409777        8.7479231979
  H         5.0752245506        1.8774410226        7.8294192347
  H         5.9842135222        0.4745805936        8.2608955070
  C         8.0830636402        1.8140902522        9.4648399383
  H         7.2179914825        2.5857750785        7.7327145427
  H         6.6935283344        3.4536390007        9.2212844384
  C         9.2566497631        2.7889409599        9.5484759772
  H         8.3425968883        0.9824958554        8.8462048951
  H         7.8029205540        1.4658227107       10.5209561426
  C         8.8776175787        4.1146510331       10.1780408355
  C         9.5493322217        3.4340647029        8.2350598183
  C        10.5316756979        2.0989811750       10.1582787008
  C         9.0854148490        5.1662099971        9.3492623215
  C         8.4487598450        4.4675043892       11.4521464206
  C         9.5441198836        4.7414533962        8.1386400228
  C        10.0353852885        2.8060980269        7.0986160872
  H        10.1965526762        1.6437770493       11.0626965124
  H        10.8759542983        1.3566905806        9.5181949043
  C        11.6826711812        3.1319261570       10.3977550368
  S         8.6754213357        6.6577229868       10.0388179647
  C         8.2361057696        5.8348970432       11.5347552452
  H         8.2465142156        3.6892973190       12.1407418074
  C         9.8824260329        5.4045104925        6.9624223425
  H        10.0179632256        1.6916394226        7.1290690496
  C        10.4274747718        3.4243001179        5.9049082996
  H        11.2097252880        3.9516218549       11.0865418606
  H        11.9358862388        3.5453428885        9.4500908132
  C        12.9109611177        2.6357702389       11.1840497114
  C         7.7025078788        6.4919641485       12.7902563193
  C        10.3636472113        4.7786489277        5.7862427358
  H         9.8033879856        6.4738109708        6.9144452443
  C        10.9665391349        3.0028988338        4.7205480517
  H        13.6077397334        3.4774588635       11.3434602382
  H        13.3631182277        1.9414869596       10.5382553125
  C        12.4978464867        2.0348592372       12.4780714771
  C         7.6497503889        7.8615735799       12.9079040782
  C         7.3917295719        5.6241395142       13.9681174343
  C        10.8297130485        5.4900307510        4.5385828619
  C        11.1298046890        4.1105250361        3.9182225467
  S        11.2202806023        1.4441159361        4.0538317049
  H        11.9519985105        1.0847984122       12.3067017883
  H        13.3990277270        1.7681831686       12.9011867079
  C        11.6990156324        2.9856608505       13.4435163228
  N         7.8605389395        8.8072554624       11.9125515197
  C         7.4366374931        8.4617698061       14.1901452256
  C         7.1020943156        6.2423071299       15.1935970048
  H         7.1902839980        4.5748931150       13.9292757801
  C        12.1332849405        6.2791695550        4.6873249297
  C         9.7157835704        6.2137235363        3.7471998973
  C        11.5314365385        3.6160625221        2.7196439763
  C        11.6016844176        2.2607877819        2.5898934810
  H        10.6880278797        3.3068897246       13.0771839783
  H        12.2819821376        3.8728597929       13.5752441874
  C        11.4999461374        2.4369773735       14.8371314199
  S         7.6163528585       10.3060950190       12.5277266668
  N         7.2362850038        9.8390576827       14.0414828754
  C         7.1900280285        7.7107819810       15.3658594982
  H         7.0064897092        5.5677657941       16.0154003728
  H        11.8731689062        7.2438503442        5.1407551544
  H        12.4142167058        6.4558025242        3.6829023950
  C        13.2919504793        5.6282218587        5.4822637018
  H         9.4555782980        7.1394371789        4.2386883918
  H        10.2019029723        6.5818735049        2.8357036942
  C         8.4294641819        5.4553956204        3.4123334672
  H        11.5517904719        4.2951194708        1.9104843642
  C        11.7775489561        1.4876579789        1.3042893198
  H        10.4647075792        2.7683236836       15.2316270756
  H        11.6430394135        1.3352162167       14.7159140059
  C        12.5526729912        2.8312496411       15.9141020951
  C         6.9222484980        8.4814930577       16.5707826364
  H        12.8333320375        5.2025989305        6.4058360566
  H        13.6883915246        4.7859029070        5.0593717214
  C        14.4330891738        6.5967886104        5.8679685314
  H         8.1220265201        4.8320703120        4.2564547781
  H         8.6408827928        4.7631792998        2.6224355540
  C         7.3386477564        6.4553304005        3.0112433717
  C        11.8570309673        0.0520503159        1.1261037107
  C        11.8669753572        2.2984658461        0.1059096763
  H        12.3154496062        3.8059258929       16.3490659773
  H        13.5875077773        2.8258895570       15.5819411605
  C        12.4364775927        1.8877468071       17.2053306822
  H         7.2104278544        9.5142429811       16.4972131870
  C         6.5858707870        8.1194979518       17.8449353931
  H        14.0516111179        7.2217211434        6.6672309483
  H        14.6936753495        7.2836592418        5.0622896768
  C        15.6393380768        5.9921892074        6.6091915104
  H         6.9976515533        7.0090113293        3.8382493751
  H         7.8470044500        7.2611321634        2.4557092800
  C         6.2820360544        5.7110682515        2.2462643025
  N        11.7635151763       -0.8467188379        2.1433894505
  C        12.1342618037       -0.5239153972       -0.0662675249
  C        12.0249606615        1.6349566979       -1.1038735703
  H        11.7048688187        3.3366924522        0.1160686849
  H        12.9559292473        2.2722783832       18.0902660552
  H        12.9416081442        0.8672452624       17.0503263992
  H        11.3768508179        1.7950138177       17.5704528074
  S         6.3562074842        6.6177680657       18.5794168051
  C         6.3533815457        9.3593368399       18.7038932935
  H        16.1799737566        6.7489962979        7.0852072965
  H        15.2997363364        5.3263391538        7.3526680426
  C        16.7132234297        5.2623544981        5.8385160730
  H         6.1491583681        4.6376723966        2.4605964182
  H         6.5755971871        5.7015200416        1.2073144142
  C         4.8797467550        6.3451691165        2.4009956169
  S        12.0034801248       -2.3390765386        1.5571485370
  N        12.3508737648       -1.8943306073        0.0459180031
  C        12.2950916375        0.1815698118       -1.2379883808
  H        11.9686533811        2.2605655096       -1.9440785593
  C         6.1146436578        7.6267274949       20.0534637653
  N         6.2021740328        8.9328474703       19.9402984531
  O         6.5574020915       10.5672909828       18.4247571162
  H        16.1171759565        4.5555530988        5.3023304872
  H        17.1718521083        5.9570658321        5.1200115995
  C        17.7351198358        4.4654545822        6.7505200761
  H         4.2041377819        5.9548467019        1.6102229084
  H         4.4267572627        5.9575842165        3.3670338994
  C         4.7308649913        7.9240107291        2.4968356993
  C        12.7492004359       -0.5154740749       -2.3855625952
  S         5.5840096323        6.9123043291       21.6750590676
  C         6.2983300946        9.8217384229       21.1427671366
  H        17.2208325244        3.9174784986        7.4993683356
  H        18.3017445383        3.7916609673        6.1599448411
  C        18.8585706068        5.3939074565        7.3604835326
  H         5.3578697429        8.3934854201        3.2478549446
  H         3.7584502811        8.2376736898        2.8792921747
  C         4.9461449361        8.6826163443        1.1359681552
  H        13.0591990333       -1.5287369707       -2.2078113321
  C        13.2918016697       -0.1447384216       -3.5674872587
  H         5.5209198648        9.4651450576       21.8893524894
  H         5.8917077039       10.8047022243       20.8533800047
  C         7.7174916385        9.8059841660       21.6078432564
  H        19.3335889354        4.7959506194        8.1237571928
  H        18.3397004317        6.1393884355        7.9236632778
  C        19.7864292453        5.9358155088        6.3402933649
  H         5.8243135260        9.2041364326        1.2883395058
  H         5.0049093403        7.9662407434        0.3351196248
  C         3.8941565837        9.7721555979        0.8402799433
  S        13.5054999916        1.4664555168       -4.1124305763
  C        13.4501057525       -1.2079831246       -4.5993437707
  H         7.9225436580        8.7475891288       21.8099114532
  H         7.6888918419       10.3865375476       22.6076666406
  H         8.3545143226       10.2987788172       20.8818440682
  H        20.7387922952        6.0250409257        6.8192546239
  H        19.8006846586        5.4115840158        5.4101206935
  H        19.3822404141        6.9409673448        6.1202740626
  H         3.6089481697       10.4657574445        1.5901268150
  H         4.2880055909       10.3661528905       -0.0260313626
  H         3.0104740164        9.2884588800        0.4457929834
  C        13.9076576942        0.7437279744       -5.6392874851
  N        13.9510557281       -0.6054626633       -5.6975891321
  O        13.2552581917       -2.4005993728       -4.3911943487
  S        14.6286017405        1.6975198922       -6.9727906180
  C        14.1393965830       -1.3552811890       -6.9188163290
  H        14.3264353299       -2.3647453939       -6.5795242052
  H        14.9334551138       -0.9736337468       -7.5520197632
  C        12.8658185143       -1.2387683355       -7.7516907959
  H        13.0056453116       -0.5266214215       -8.5768122815
  H        12.1109086945       -0.8414318396       -7.0653600784
  H        12.4634488741       -2.1946511603       -8.0759519997
