352
 i =   124400, time =    62200.000, E =        98.8467479752
  H         9.2716162119        5.4008208063       32.0295910475
  C        10.0733876757        6.1830023294       32.0796472634
  H         9.4778926604        7.1406498142       32.3683910402
  C        10.5775215054        6.3682659729       30.6854059707
  C        11.0543809041        5.6588626146       33.2004461270
  C        10.3417859407        5.1479167943       29.8211005388
  H         9.9828920677        7.1639845465       30.1630152748
  H        11.5971717889        6.6492900718       30.8648003818
  H        11.1706505420        6.3379661929       34.0152946689
  H        10.6827602894        4.7550108349       33.6667672601
  H        11.9852487677        5.3710248247       32.7605100407
  C        11.2185638819        5.0410999871       28.6266891214
  H         9.3936845374        5.0249632634       29.4451789423
  H        10.3372727546        4.2349676004       30.3515046749
  C        10.8308728298        5.8198236429       27.3853634058
  H        12.2718866541        5.2217339578       28.9869048795
  H        11.2280736883        4.0209898601       28.2294595224
  C         9.6828587104        5.1228663862       26.6221461129
  H        11.7321460850        5.9262766857       26.7063308963
  H        10.5341826671        6.8158696887       27.6444632497
  C         8.4883713826        6.0671741047       26.3486602129
  H        10.0767144999        4.7563632037       25.6729476328
  H         9.3102464389        4.2097165234       27.0548697873
  C         7.2155904831        5.4848576781       25.7154284661
  H         8.1866369567        6.6220775621       27.2110631034
  H         8.8512801736        6.8921605499       25.6646380477
  C         6.8884664512        4.1909169959       26.4138714878
  C         7.5604031258        4.8140573854       24.3792081466
  C         6.0352319523        6.4215800803       25.5532630295
  C         6.9571284737        3.1083148413       25.5332546771
  C         6.3647426916        3.8274152323       27.6885710364
  C         7.4903309318        3.4701362998       24.3075137856
  C         7.9943865432        5.3777454837       23.1979141570
  H         6.2686423493        7.2097042627       24.7637641506
  H         5.8339854364        6.9801465656       26.4706152310
  C         4.6909006788        5.6946202455       25.1568601031
  S         6.6476694506        1.6041479598       26.2569918962
  C         6.2193428631        2.4618214557       27.7582488970
  H         6.2233548299        4.5104895325       28.5511407623
  C         7.8261191853        2.7099845779       23.1826208076
  H         8.0603709093        6.4689667563       23.1397224805
  C         8.3234141313        4.6662017108       22.0335736639
  H         4.8817630225        4.9569518615       24.3343201173
  H         4.3120477729        5.0465849571       25.9854391678
  C         3.5104697417        6.6647633911       24.8582497224
  C         5.7811679539        1.7693964264       29.0190444116
  C         8.2199532715        3.3085463350       21.9542738517
  H         7.8325143993        1.6724972668       23.2787007806
  C         8.7097870106        4.9825207575       20.7474808546
  H         2.9825651046        6.2912121698       23.9964885616
  H         3.8606397578        7.6900469681       24.4970687004
  C         2.6083030447        6.9116221399       26.1170669948
  C         5.7384053813        0.3800139357       29.1717096033
  C         5.3485430228        2.5798047787       30.1497099732
  C         8.5235553381        2.5876413009       20.7122692789
  C         8.8107638321        3.8444046994       19.9133915480
  S         9.2163513851        6.4537140436       19.9990960576
  H         1.9683257680        7.8022754857       25.9689627581
  H         3.2194184532        7.2112024007       26.9116022587
  C         1.7157404617        5.6370374336       26.4840597696
  N         5.8836079755       -0.5795604399       28.1656297381
  C         5.5551462026       -0.2227551289       30.3913314028
  C         5.0144560267        2.0056208998       31.4032370886
  H         5.3068064366        3.6823710424       30.2177322390
  C         7.3460018862        1.7660147658       20.1469608923
  C         9.7650787684        1.6048413779       20.8360101527
  C         9.2171566576        4.2805517362       18.6030749161
  C         9.5037498235        5.6364112718       18.5296301325
  H         1.0979728492        5.4568521046       25.5754483547
  H         2.3405436134        4.7405680439       26.5389211518
  C         0.7063589603        5.9264942620       27.6304301737
  S         5.7508969787       -2.0693377643       28.8783036159
  N         5.5352353028       -1.5757273907       30.3960589245
  C         5.2296590166        0.5490743770       31.5641804753
  H         4.7252145701        2.6911799046       32.1383823156
  H         7.1034697063        1.0281597134       20.8544447843
  H         7.5989821923        1.2651330099       19.2880355297
  C         6.0693666824        2.5641369370       19.9065778991
  H         9.9682576023        1.2041128538       19.8552008543
  H         9.5424762788        0.7744922167       21.4933088335
  C        11.0553448875        2.4106021033       21.3592869160
  H         9.4024236860        3.5307109259       17.8175605344
  C         9.9765594070        6.2606032827       17.2659858184
  H        -0.0445234898        5.2643358438       27.3353013130
  H         0.2008578865        6.8555543688       27.5117916542
  C         1.1924628490        5.8267630257       29.0673401655
  C         4.9723720570       -0.1984313619       32.7886225468
  H         6.2410073850        3.4352944473       19.3770997115
  H         5.7715059442        3.0593674770       20.8606798728
  C         5.0099240782        1.5863195944       19.3623472709
  H        10.7317585956        2.9262331987       22.2724081334
  H        11.4652567081        3.1116301613       20.5917835182
  C        12.1855637808        1.5283637135       21.9220959486
  C        10.1002518836        7.6605363710       17.0150098384
  C        10.2240986003        5.3592001900       16.0974806209
  H         1.0218339352        6.7289880764       29.6447271159
  H         0.6715306244        5.0538064583       29.7169894218
  C         2.6749905891        5.6845310535       29.2749879415
  H         4.9610867506       -1.2689723796       32.8754517086
  C         4.5582265763        0.2263714206       34.0436820278
  H         4.4906931402        1.1876595218       20.2070349410
  H         5.5151329551        0.7772808258       18.7773062432
  C         3.9854703394        2.3240261107       18.4710492667
  H        11.8873431934        0.8028635037       22.7267034269
  H        12.6213220146        0.9057448185       21.1219226965
  C        13.2345966962        2.3678885261       22.6428403165
  N         9.8842029199        8.6524152615       17.9973962662
  C        10.4131473990        8.1943127911       15.7736356902
  C        10.6167339663        5.8948625642       14.8676599662
  H        10.2494771632        4.2682339983       16.2249543046
  H         2.8184689148        5.1294499826       30.1736311920
  H         3.2654141706        5.2613532595       28.3915360734
  H         3.1178932081        6.6877346785       29.4282687557
  S         4.3035339048        1.8827947512       34.6301936688
  C         4.5132296040       -0.7469120542       35.1158171074
  H         3.5471029272        3.1257809608       19.0866682888
  H         4.5133668508        2.7818418597       17.6436863506
  C         2.8870646688        1.4039280330       17.8999553331
  H        12.8355642343        2.6926104245       23.5365213821
  H        13.4475317385        3.1484900087       21.9673279439
  C        14.6007310759        1.6260471735       22.6998631132
  S        10.0367169384       10.1398881358       17.3278493508
  N        10.4337072507        9.5760375126       15.8470696510
  C        10.6904234936        7.3607340827       14.6319539515
  H        10.7586954733        5.3387854314       13.9710578653
  C         4.0822204856        1.1710613035       36.2855749802
  N         4.1666891159       -0.1651889741       36.2422124883
  O         4.6539031764       -1.9555317213       34.9553985646
  H         2.3268145941        2.1060276396       17.2239327884
  H         2.2676258728        1.0122117263       18.6850350927
  C         3.3974048270        0.2446845063       17.0737231458
  H        14.6780378568        1.2053822039       23.7009545739
  H        14.5299543118        0.7413663472       22.0035338450
  C        15.8062681772        2.4847908516       22.2571085066
  C        10.9047425454        8.0333590186       13.4615964020
  S         3.6177241571        2.0668954166       37.7345490408
  C         4.0068008681       -0.9811076491       37.4904554423
  H         2.8947362585        0.3031326878       16.1838508452
  H         4.3943520319        0.3175257074       16.6944340196
  C         3.1467528503       -1.1380048409       17.7791035984
  H        15.6425495429        3.4520238064       22.6578130896
  H        15.8568714012        2.6297867966       21.2171805125
  C        17.1117427677        1.9630760555       22.9038518897
  H        10.5492668391        9.0339214117       13.4948615078
  C        11.5040483381        7.6105584941       12.2482020564
  H         3.3213514510       -0.4496119979       38.1619871217
  H         3.4790491523       -1.9080682317       37.1513056673
  C         5.3510140605       -1.3621720626       38.1477926978
  H         3.4054864230       -1.1878820343       18.8174722088
  H         3.8126204187       -1.8905256181       17.3652213066
  C         1.6589708350       -1.5827675183       17.4297352032
  H        17.5100637260        0.9377185100       22.5879111635
  H        17.8956018178        2.6066371113       22.5056158598
  C        17.0399941174        2.0236147514       24.4377412199
  S        12.1497461551        6.1476379903       11.8149385215
  C        11.7114711882        8.6573456757       11.2632490334
  H         5.6065873385       -0.5637479058       38.8586028252
  H         5.2377851164       -2.3456871994       38.6107664147
  H         6.1503239148       -1.4860631813       37.4016786965
  H         1.0388316213       -0.9538612783       16.7238918069
  H         1.0096853021       -1.6849980105       18.3649208747
  H         1.6071886665       -2.6643803487       17.1613602713
  H        16.5045285224        1.1037004472       24.7375084378
  H        16.5015810795        2.8716739572       24.8377371719
  H        17.9963192021        1.9524918602       24.9055557832
  C        12.4696818998        6.8035970772       10.2501174770
  N        12.3942494038        8.1366288279       10.2124475859
  O        11.3651102485        9.8350626652       11.4183301619
  S        13.1767699181        5.9041905738        8.8462432466
  C        12.4394310482        8.9256434050        8.9868528853
  H        12.8331688997        9.8126176458        9.2333955958
  H        13.1381747234        8.4259529160        8.2714818381
  C        11.0292584380        8.9873027224        8.2469778357
  H        10.8078084756       10.0058527889        8.1288399353
  H        11.2540821248        8.5485044650        7.2619914149
  H        10.3283365880        8.3795279676        8.8579023713
  H         3.3189922017        3.4089845564       13.1290913988
  C         3.6229708426        2.3974369346       12.7845969131
  H         3.3013900628        1.7308597576       13.5813551115
  C         2.9693925525        2.1232362956       11.4490234637
  C         5.2026891667        2.3233869794       12.8296996642
  C         3.7363710140        2.4034916140       10.0654042375
  H         2.1064211236        2.7751513896       11.3810677307
  H         2.4509532302        1.1125431271       11.3924686626
  H         5.4956097173        2.9730247002       13.6983052050
  H         5.5399803107        2.7810678290       11.9077150566
  H         5.4798127797        1.3225567010       12.9729649922
  C         4.6718175740        1.2320643525        9.6672604595
  H         3.0733423529        2.7076285350        9.3015481809
  H         4.3238830444        3.3111857499       10.1466176966
  C         5.5074466510        1.5177868316        8.4186795088
  H         4.1646270899        0.2936448606        9.4136691868
  H         5.2413665474        0.8538382379       10.4717447857
  C         6.5909815655        2.5064366736        8.8560823662
  H         4.9274923783        1.9298902196        7.6331445156
  H         5.9814412885        0.6077041788        7.9844393910
  C         7.8576637877        1.7797569686        9.2577553094
  H         6.7501656062        3.2494205342        8.0455016505
  H         6.3512572610        3.0532840116        9.6493938937
  C         9.0664278857        2.7009524543        9.5833044315
  H         8.2202667981        1.0781397836        8.4734729352
  H         7.6343716424        1.1782580317       10.1099776125
  C         8.6871423539        4.0865667405       10.1629537200
  C         9.5225370991        3.4422491366        8.3368925842
  C        10.1876116066        1.9363159159       10.3089740214
  C         8.8321899770        5.1839125223        9.3820171393
  C         8.1398195971        4.4924933471       11.4314662521
  C         9.3757180669        4.7872554953        8.1777134184
  C         9.9195127926        2.8030839082        7.1479077269
  H         9.8702708160        1.3987607831       11.1959346294
  H        10.4635741762        1.0991663716        9.6317825402
  C        11.3421839190        2.8717819629       10.7001012310
  S         8.3977046310        6.6754517118       10.0203430426
  C         8.0315579853        5.8544866937       11.4942123782
  H         8.0873231935        3.7759745839       12.2653198980
  C         9.7138829487        5.4962785040        7.0013878376
  H        10.0179328545        1.7735680471        7.1372665798
  C        10.2794864564        3.4345682651        5.9922118329
  H        10.8575867117        3.6395845821       11.3304243806
  H        11.7409744611        3.3253934613        9.8087114672
  C        12.3041482211        2.0579652729       11.5178815056
  C         7.6935041328        6.5875805989       12.7213249466
  C        10.1771466594        4.8060665836        5.8593954001
  H         9.4772838117        6.5514012865        6.9629967875
  C        10.5849193337        3.0096634997        4.7533665945
  H        13.3053937560        2.5764692413       11.4740278710
  H        12.3051700514        1.0720125732       11.1289567606
  C        11.7722624489        2.1171363232       12.9294727249
  C         7.6727589599        7.9917336271       12.9578635299
  C         7.3458633644        5.7884982542       13.9144193045
  C        10.5200227593        5.4659191428        4.5782802617
  C        10.8041759373        4.1044667153        3.9296753527
  S        10.9377040607        1.5406703827        3.9496922760
  H        11.3348775949        3.0909415913       13.1837886741
  H        10.9321593298        1.4085030954       12.9900084934
  C        12.8327408574        1.6807989299       13.8454608633
  N         7.9241705134        8.9265533649       11.9551165186
  C         7.4186258837        8.5558004441       14.1785721699
  C         7.0136484406        6.3727874543       15.1078002323
  H         7.0393574793        4.7402452756       13.8283845845
  C        11.7562783883        6.2953062967        4.6451994752
  C         9.3823074651        6.2138943859        3.8364673734
  C        11.3445254035        3.7429222199        2.6765571472
  C        11.4652507942        2.3582716636        2.5505411884
  H        13.7262142915        2.3076841531       13.8073490151
  H        13.0347140548        0.6189708206       13.7164051469
  C        12.3308989615        1.9316406869       15.2127224945
  S         7.8984362293       10.3928247952       12.6040433973
  N         7.3097257412        9.9563484487       14.0461374753
  C         7.1386917032        7.8139072761       15.3044303460
  H         6.7047237462        5.7240811483       15.8807322826
  H        11.5045972212        7.2523186067        5.1091517553
  H        12.0682207745        6.5480857035        3.6643105341
  C        12.9185504421        5.5198751815        5.3014311134
  H         9.0226394892        6.8612780746        4.6264563899
  H         9.7214712136        6.9103302008        3.0747196353
  C         8.2586906868        5.3967418469        3.3624145328
  H        11.4274692265        4.5777977808        1.9970392713
  C        11.8471491020        1.6419013075        1.3197792416
  H        12.2009362307        3.0341213360       15.2543456428
  H        11.3976738292        1.4135161461       15.4509660913
  C        13.2693757200        1.8423411480       16.3271530985
  C         6.8954254645        8.5666058468       16.4963049635
  H        12.6121781869        5.2602683324        6.2888456793
  H        13.1625241941        4.5518132820        4.7820223146
  C        14.2538999678        6.3491588991        5.3609591226
  H         7.8669928585        4.9339226789        4.2455404575
  H         8.5066696589        4.6028286409        2.6358796630
  C         7.2081580668        6.3990383009        2.9310059735
  C        11.8155569947        0.2263258999        1.1668681894
  C        12.0513932748        2.3559598995        0.0827748677
  H        14.1461248379        2.5173194267       16.2715463860
  H        13.7417727851        0.8698103121       16.3576518927
  C        12.6065911796        2.1526643288       17.6971076513
  H         7.0766730930        9.6044402772       16.4976039626
  C         6.5785437791        8.1681554509       17.8026902478
  H        14.0590711580        7.0995875458        6.1423738885
  H        14.3404454370        6.9547797648        4.4790168183
  C        15.5164221693        5.4320311007        5.6744886143
  H         6.9039740681        7.0832749483        3.6556293322
  H         7.5315936776        7.0649734812        2.1175369233
  C         5.9102438234        5.6784486783        2.6750357498
  N        11.5117332507       -0.6265756696        2.2311455073
  C        12.1304897968       -0.4760265376        0.0080561677
  C        12.2220286671        1.7419394701       -1.1372440730
  H        12.2013983174        3.4471408816        0.0709326337
  H        11.9304494301        1.3518701136       17.9787381009
  H        11.9943761863        3.1154091396       17.4937116247
  H        13.3460980983        2.3268405967       18.4971364968
  S         6.1539402929        6.6009560556       18.4399176804
  C         6.5217590633        9.2435631219       18.8535652710
  H        15.3541445669        4.5860738736        6.3295264551
  H        15.8945997056        5.0567222140        4.7214778624
  C        16.6996802076        6.3044889322        6.1564523659
  H         5.3579485287        5.7227688271        3.6148045175
  H         6.0377573641        4.6175083948        2.5452401406
  C         5.0841368378        6.2608503444        1.4859502791
  S        11.7145391439       -2.1326199448        1.7542473150
  N        12.0731977304       -1.8535982370        0.1717713976
  C        12.3672003130        0.2178128222       -1.1615184507
  H        12.2684563673        2.3841272090       -1.9983569027
  C         5.8788508979        7.3591270721       20.0051601808
  N         6.0191806041        8.7392768757       20.0067733892
  O         6.7829584697       10.4714901307       18.6868565371
  H        17.1157842691        6.9226922327        5.3422373635
  H        16.3266047441        7.0502019196        6.8268395414
  C        17.6121166834        5.3106018158        6.7393774959
  H         5.8289416403        6.5311557458        0.7426066015
  H         4.4179296170        5.5233426997        0.9902303313
  C         4.2987010757        7.4839462342        2.0221612488
  C        12.5811264872       -0.5120231123       -2.4121360540
  S         5.2264579210        6.5014895316       21.3550989362
  C         6.0483304226        9.4829885968       21.3165757769
  H        17.0829670136        5.0043403859        7.6246841470
  H        17.7426444566        4.4862109509        6.1090109827
  C        18.9350541973        5.8417384912        7.1693473055
  H         4.5426957389        7.7914983228        3.0335737437
  H         3.2987623809        7.1100658853        2.2975816696
  C         4.2265284044        8.6652362064        0.9633801593
  H        12.2494938961       -1.5913362065       -2.3241059031
  C        13.1124763201       -0.0885026215       -3.6305203285
  H         5.3032428533        9.1904094013       22.0731359927
  H         5.8234089689       10.5098163551       21.1056126813
  C         7.5039614494        9.4114438779       21.9217325964
  H        19.2245023725        5.4503746971        8.1580706565
  H        18.7844651106        6.9026984643        7.3050929590
  C        20.0168446822        5.6629816357        6.1519949318
  H         5.2206764109        9.0421720515        0.6700461952
  H         3.7859473376        8.3583984513       -0.0446067538
  C         3.6502646586        9.9389099500        1.4867547089
  S        13.6493075088        1.5123005982       -4.0642778102
  C        13.3123826220       -1.1640417204       -4.6308434074
  H         8.0712147023        8.5740531596       21.4044882763
  H         7.4459996728        9.0794712261       22.9672708918
  H         8.1791603008       10.2642152737       21.7091674089
  H        19.6725579919        6.0219508162        5.2185538919
  H        20.8150574154        6.4122334684        6.3675504916
  H        20.4425839018        4.6607374807        5.9939876687
  H         4.2445933676       10.0865319864        2.4239418713
  H         3.8216879756       10.7387206111        0.8096348623
  H         2.6034506339        9.7822267588        1.6830357615
  C        14.2074306659        0.7484056583       -5.5404136062
  N        13.9578635345       -0.5932608719       -5.6333256258
  O        12.9286263312       -2.3050591703       -4.5425478875
  S        14.9849219504        1.5724639182       -6.8423477469
  C        14.1078853013       -1.3877098457       -6.8709206751
  H        14.2589401473       -2.3898761253       -6.6179617444
  H        14.9361237172       -1.1276834481       -7.4708379030
  C        12.7830738007       -1.1945601004       -7.6638374187
  H        12.7153975539       -1.9788706060       -8.4152329710
  H        12.7763931856       -0.2411126515       -8.2205358967
  H        11.8561146597       -1.1126802088       -7.0834957683
