352
 i =    93600, time =    46800.000, E =        99.9295889162
  H        12.3142400080        6.8286036815       32.7745468015
  C        11.6816374619        5.9030850110       32.6156191134
  H        12.3204265866        5.0611094748       32.3785777830
  C        10.5536904888        5.8742471378       31.6429110026
  C        11.3210830960        5.5715553294       34.0648495161
  C        11.0591336637        5.7656102645       30.2045943265
  H        10.0207911071        4.9203200155       31.7778300026
  H         9.8577309148        6.7543437300       31.8988421214
  H        12.2025918678        5.6164513606       34.6881964003
  H        10.6395037133        6.3639174856       34.4981067167
  H        10.8899244485        4.5575655512       34.1942109695
  C         9.8881997412        5.6577876624       29.2034735406
  H        11.6034791874        4.8401047973       30.1041301161
  H        11.7369306563        6.6033792879       29.9684715634
  C        10.4507356682        5.5679896962       27.7148862918
  H         9.3071930347        4.7704274118       29.4474132803
  H         9.2367379810        6.5268204952       29.1971223972
  C         9.4381497336        4.9958307646       26.7300414902
  H        11.3885716768        4.9958526440       27.6267754905
  H        10.7152352061        6.5921658113       27.3251442268
  C         8.1451117037        5.8164346906       26.4918101896
  H         9.9262686478        5.0403562239       25.7655311992
  H         9.2534141673        3.9289209077       26.7895447828
  C         7.0161173866        5.1736410581       25.7587585228
  H         7.8968534166        6.2384904336       27.5124190051
  H         8.3887811462        6.7374880450       25.8719697759
  C         6.6750349231        3.8063082000       26.3871185213
  C         7.4227931433        4.4849488729       24.4533435188
  C         5.7998346360        6.0634738718       25.7062173031
  C         6.9125187876        2.7433899687       25.5588276074
  C         6.2337368002        3.4262522399       27.6393293979
  C         7.3697192245        3.1430866296       24.3141801565
  C         7.7569209355        5.1700700933       23.2715924714
  H         6.0450118905        6.9481182634       25.2302695343
  H         5.5845276078        6.3889149370       26.6835553770
  C         4.6635607783        5.3826199202       25.0031310097
  S         6.4980096010        1.2158544918       26.3067015406
  C         6.1020282457        2.1264332160       27.7988018162
  H         6.0408461393        4.1943086735       28.4023449409
  C         7.7666674363        2.5324068895       23.1518003058
  H         7.6239023995        6.2517343227       23.3110147225
  C         8.1645076652        4.5922730430       22.1004289262
  H         4.9015195843        5.2601314810       23.9399459354
  H         4.4768820232        4.3505255381       25.3000725914
  C         3.3502111881        6.3060404156       25.0363209749
  C         5.7414778609        1.4712342973       29.1420886238
  C         8.1652294110        3.2225291529       21.9436135863
  H         7.7857733794        1.4347908637       23.2548826955
  C         8.6158073675        4.9645634149       20.8395369185
  H         2.6476535614        5.9239607955       24.2888265621
  H         3.6050154182        7.2427512657       24.6478859396
  C         2.6166237213        6.3455692949       26.4283597226
  C         5.8911597496        0.0979342415       29.4652496965
  C         5.0820267494        2.2567281346       30.1726979745
  C         8.5862123362        2.5692062474       20.7121525714
  C         8.9111832008        3.8771699739       19.9764306456
  S         9.0881413567        6.4811806902       20.1757195030
  H         1.5521018696        6.5519414022       26.2635769487
  H         3.0909155890        7.1228541154       27.0327324594
  C         2.6732725938        4.9717193236       27.0998768973
  N         6.2676010763       -0.8824062221       28.5148591270
  C         5.5395942398       -0.4488456787       30.6802298409
  C         5.0072328721        1.7973288508       31.5000850363
  H         5.0388753825        3.3060247058       30.0759865631
  C         7.3549691815        1.7844784755       20.0116808116
  C         9.9583746780        1.7452727094       20.8835282230
  C         9.4977604100        4.3090851106       18.7980695387
  C         9.5803904847        5.6894161983       18.6963399155
  H         2.5200281543        4.0987522886       26.4581949625
  H         3.6301625163        4.8004806887       27.5302959568
  C         1.7298510397        4.8254791822       28.2986748258
  S         6.2697371629       -2.3585247343       29.2534686551
  N         5.7636877763       -1.8161442304       30.7317095519
  C         5.1458479631        0.3257248817       31.7783558176
  H         4.9310466031        2.5576044390       32.3266082075
  H         6.7440540004        1.1931499242       20.6696499215
  H         8.0546079360        1.2083145531       19.3344867447
  C         6.3389450039        2.7201909889       19.3080599298
  H        10.2837202692        1.0638990037       20.1240881042
  H         9.8084279551        1.2045175180       21.8132959187
  C        11.2052563426        2.5679595334       21.3138603273
  H         9.5631421329        3.5269036987       17.9981413026
  C         9.9813861669        6.4320782190       17.4539880176
  H         1.3379327481        3.7940856333       28.4035617122
  H         0.8466721974        5.4198536260       28.1131155935
  C         2.3234621945        5.4317988754       29.5999046799
  C         5.0002543981       -0.3133332114       33.0725889970
  H         6.6917323063        3.4588588277       18.6032169579
  H         5.7775567022        3.2029791944       20.1207837826
  C         5.3373957760        1.9921625061       18.3502079797
  H        10.8593851195        3.2262450479       22.1775358294
  H        11.4633481455        3.3537804966       20.5304181336
  C        12.3389853855        1.7174785727       21.8803385033
  C        10.0130915529        7.8136951830       17.2055798289
  C        10.1778528544        5.6387852627       16.1779360950
  H         3.2708564536        4.8847262613       29.8869376517
  H         2.6083538663        6.4564012606       29.4759160570
  C         1.3752950759        5.3451742293       30.8063797278
  H         5.1738758371       -1.3710696448       33.0140130833
  C         4.6058087642        0.1950334886       34.3067278870
  H         5.3265294388        0.8938716364       18.5618483255
  H         5.7956061715        1.9792857936       17.4212884907
  C         3.9309415434        2.4659420555       18.0424908454
  H        12.0035749650        1.1154124085       22.7125689221
  H        12.5353937708        1.0338045905       21.0643735563
  C        13.4607507618        2.6711469539       22.1264843112
  N         9.8047258306        8.7994799019       18.2688513258
  C        10.3719749282        8.4791457664       16.0184223948
  C        10.4259232580        6.2864553502       14.9434439772
  H        10.0834482816        4.5815261711       16.1005040383
  H         0.3622698068        5.6789006603       30.5478225719
  H         1.3009348541        4.4074060470       31.3505300203
  H         1.7743226852        5.8424281573       31.6453845213
  S         4.3811771702        1.8228175070       34.6331471650
  C         4.5079914668       -0.7492671078       35.3760584146
  H         3.4794584874        2.9117280820       18.9045105545
  H         3.8670655199        3.2385748283       17.2411642933
  C         3.1824763339        1.2924622132       17.4470560234
  H        13.2075633248        3.4797511236       22.8180474533
  H        13.7983318222        3.0174735230       21.1785498882
  C        14.6411000831        1.8787139881       22.7102456141
  S         9.9616365784       10.3579659100       17.6480894435
  N        10.4381376282        9.8788720471       16.1720514499
  C        10.6075110110        7.7606548407       14.8285405577
  H        10.5384847056        5.7591776626       14.0775812198
  C         3.9735959979        1.2397117073       36.2569398664
  N         3.9484218653       -0.0874198278       36.4217779449
  O         4.6607817878       -1.9980799288       35.2932966636
  H         3.9719571846        0.8225205278       16.8846023776
  H         2.4710716262        1.6494448266       16.7391557154
  C         2.5194410327        0.4253059102       18.5440322683
  H        14.4010180879        1.2781336115       23.5712238830
  H        15.1445809895        1.3507755628       21.8766834217
  C        15.6599248820        3.0521551234       23.0358798287
  C        11.0039726625        8.5079512965       13.7376896028
  S         3.4476032094        2.3283066746       37.4929755370
  C         3.8171465940       -0.6671001761       37.7033233279
  H         3.1751793499        0.4153871718       19.4676058034
  H         1.5750836158        0.9694034666       18.6214053045
  C         2.1657844767       -0.9455464911       18.0393567300
  H        15.9738240448        3.0430807456       24.0939278231
  H        15.1964529701        4.0466718814       22.8498163130
  C        16.9572739986        2.9342731876       22.2270431275
  H        10.8731102008        9.5671891262       13.8581519857
  C        11.5324838684        8.1228539996       12.5052063178
  H         3.1549333361       -0.2315114722       38.4301375355
  H         3.5970774123       -1.7481905553       37.5946238343
  C         5.2307284163       -0.6506622182       38.3833236169
  H         3.0479198660       -1.6063740449       18.0053228552
  H         1.7936021763       -0.7965780236       17.0409648295
  C         0.9958573547       -1.4522773490       18.9086201066
  H        16.7099204582        2.5644824795       21.2535420616
  H        17.3512982511        3.9473512177       22.1468417991
  C        17.9889493333        2.1673322758       23.1068593053
  S        12.2151717395        6.5332506141       12.0940592595
  C        11.6530908798        9.1386814365       11.4227913353
  H         5.8386035456        0.2302996011       38.1238631538
  H         4.9968130964       -0.6565751562       39.4307774651
  H         5.8518369327       -1.5771891354       38.2800926219
  H         1.3193069779       -1.5632988848       19.9902479965
  H         0.7928768627       -2.4845208974       18.6057362223
  H         0.0806729748       -0.8970530987       18.6846759249
  H        18.8222245919        1.7640150901       22.5318408029
  H        17.5956398051        1.2630321257       23.5359777614
  H        18.2891137553        2.7442838344       23.9775948224
  C        12.3333375049        7.2176071000       10.4522091059
  N        12.1679842294        8.5152837769       10.3449520108
  O        11.2557096110       10.2998438129       11.5101982324
  S        12.7225215167        6.2787073117        9.0814190025
  C        12.3738895063        9.1827436334        9.0627899561
  H        12.4301815260       10.2958728852        9.2028232560
  H        13.3224035617        8.8633817544        8.6309805735
  C        11.2787351588        8.8136904428        8.0578500552
  H        10.4475546928        9.5291380792        8.1075403900
  H        11.7262047332        8.8892622626        7.0440200774
  H        10.7760297518        7.8671980923        8.0815863600
  H         4.1459998552        1.0360032740       12.3300344039
  C         3.5701099835        2.0019191003       12.1402729663
  H         4.2599161168        2.8386607904       11.8327029268
  C         2.6722311284        1.9572611164       10.9356559840
  C         2.9718911755        2.3322863582       13.5042006007
  C         3.4476735311        2.0501561307        9.6552754024
  H         1.8235453674        2.6810256037       10.9073058605
  H         2.1692342612        1.0687230139       10.9315908991
  H         2.5419551497        3.3782979946       13.4795874774
  H         3.7973861277        2.2122712890       14.2627248284
  H         2.1134883767        1.6735230147       13.7394626618
  C         4.5695154624        1.0270556014        9.5295235753
  H         2.8768030281        1.7506851238        8.8548503407
  H         3.8924949057        3.0620660796        9.4836768530
  C         5.4324308847        1.3392242652        8.2189189872
  H         4.1655327670       -0.0017771202        9.5141948105
  H         5.2883630045        1.0229526063       10.4229732662
  C         6.5954588847        2.2722560014        8.6534353444
  H         4.8029230148        1.7817965606        7.4136022582
  H         5.8164545593        0.4012772058        7.8261044994
  C         7.9223375061        1.6222583747        9.0354312652
  H         6.7597544994        3.1139697923        7.9005219301
  H         6.1894546837        2.8522415705        9.5085359891
  C         9.1021805502        2.6529774741        9.2355791265
  H         8.1757651063        1.0006272664        8.1812976901
  H         7.7733264943        0.8949562787        9.8376566150
  C         8.6273431675        3.9883574525        9.8584921247
  C         9.5452896369        3.3061511998        7.9403824881
  C        10.3082653150        1.9893396482       10.0910316140
  C         8.8958205590        5.0734521742        9.0092659624
  C         8.1295449144        4.4369605311       11.0626106739
  C         9.4884752130        4.6534737892        7.8101111053
  C        10.1255082938        2.6544535687        6.8261240499
  H         9.9883507299        1.3841530587       10.9624440066
  H        10.8310201914        1.2993297021        9.4148407828
  C        11.4584532065        2.8709947719       10.5719692241
  S         8.4896750062        6.5918856960        9.6894885970
  C         8.0010764837        5.8018664898       11.1484823605
  H         7.9313027744        3.6822692389       11.7774658207
  C         9.8997546617        5.2367245115        6.6613944555
  H        10.1302236806        1.5543959121        6.9110658829
  C        10.5475381101        3.3128729466        5.7017574198
  H        10.9372625481        3.2948302052       11.4057527496
  H        11.6382930248        3.6510219894        9.8058643490
  C        12.7784022488        2.1861440953       11.0222871699
  C         7.6011843418        6.4327754140       12.4334749979
  C        10.5442184377        4.6616926818        5.5907188951
  H         9.9486182273        6.3319922233        6.8037169557
  C        11.0015975056        2.9311789119        4.4490848729
  H        13.5312469434        2.7945136778       10.6214665211
  H        12.9508806983        1.1973020336       10.6654142654
  C        12.9250245761        2.2705372284       12.6194446529
  C         7.8002893304        7.7773762970       12.6766390941
  C         7.0913948166        5.6282087482       13.6156036030
  C        10.9827918128        5.3787658263        4.3054579623
  C        11.1699747784        4.0568512920        3.6095161671
  S        11.1317268072        1.4710364201        3.6110035926
  H        13.8987988170        1.7638919643       12.7859287104
  H        13.1220854017        3.2411655826       12.9964251150
  C        11.9889210061        1.5359995322       13.5361062551
  N         8.0876912931        8.7164484746       11.6553374249
  C         7.5710388773        8.3890303288       13.8917338021
  C         6.9666742672        6.1863468795       14.8599693509
  H         6.8203523694        4.5764313378       13.4579148397
  C        12.3695923246        6.1134128971        4.3138144046
  C         9.8703593419        6.3319963628        3.8339270420
  C        11.5279169706        3.6684571435        2.3076878720
  C        11.5654733994        2.2996695856        2.2172104115
  H        12.4662966322        0.5365558124       13.7292828270
  H        10.9939614255        1.5112639808       13.1130906302
  C        11.9981526610        2.0321916480       14.9190944911
  S         8.0400655385       10.1774269348       12.3122601857
  N         7.8617834793        9.7524654596       13.8709114780
  C         7.1633682383        7.6780657760       15.0493028164
  H         6.6450308181        5.6127585211       15.7201343621
  H        12.1549597798        7.0678443462        4.7662450770
  H        12.6200277243        6.2938569946        3.3172130289
  C        13.4667881780        5.4118390334        5.1786687234
  H         9.8360225530        7.1455161577        4.5095130874
  H        10.3229180093        6.6709973307        2.8731879122
  C         8.4582265809        5.8060332202        3.5206637192
  H        11.5372018642        4.4103228433        1.5376038405
  C        11.9761567600        1.5379259181        0.9931941014
  H        11.8018171634        3.1038284075       14.9442739866
  H        11.2643663877        1.5883050749       15.5138422643
  C        13.3117116656        1.7509234381       15.6731019875
  C         6.8566206411        8.3508227755       16.3232472694
  H        12.9515565719        5.0654951188        6.0894026769
  H        13.7834435411        4.5131591832        4.7106282151
  C        14.7813492078        6.3677985978        5.4525376878
  H         8.0009738067        5.5535734251        4.4503748239
  H         8.5369325607        4.8883374776        2.8921164175
  C         7.6273787767        6.7381164651        2.7047295999
  C        12.0879183347        0.0996707245        0.8162228449
  C        12.2303699518        2.2504432201       -0.2708753500
  H        14.1717659056        2.1484975452       15.1975815048
  H        13.4413943639        0.6647612571       15.7336651607
  C        13.2852961427        2.3453399946       17.1415612338
  H         6.9337348967        9.3888662288       16.3225258829
  C         6.4981549582        7.8967868764       17.5626759532
  H        14.5330980192        7.2470243022        6.0680961152
  H        15.1477708574        6.7301635913        4.5087732629
  C        15.8010094211        5.5315805524        6.1843072564
  H         7.2962807396        7.5638113518        3.2720198178
  H         8.3043258749        7.2141570033        1.9557796680
  C         6.4618805948        5.9957764675        2.0506143018
  N        11.7907558652       -0.8383373969        1.7934221697
  C        12.4889671390       -0.4887773219       -0.3779333058
  C        12.4954055649        1.6527001789       -1.4867728531
  H        12.0459357421        3.3278447541       -0.2896270649
  H        12.9252724468        1.6409094111       17.8297149604
  H        12.6541615695        3.2148383287       17.2026686115
  H        14.3314078523        2.6046140269       17.4235542769
  S         6.0437126306        6.3784401473       18.0905124749
  C         6.4443964841        8.9134122443       18.6170309675
  H        15.2454423936        4.8249078310        6.8894219809
  H        16.1746671880        4.7411471715        5.5117101011
  C        17.0100148421        6.2472038019        6.8744764435
  H         6.1260098441        5.1152169053        2.5029859793
  H         6.8507434455        5.6220505370        1.0858878497
  C         5.2684637638        6.8714128938        1.8178697093
  S        11.9581899190       -2.3464039693        1.1730467197
  N        12.4548478293       -1.8842272841       -0.3217190327
  C        12.7380661866        0.1890396741       -1.5574109697
  H        12.4193775378        2.3181535537       -2.3992082856
  C         5.8961325031        6.9995390099       19.6776253559
  N         5.9986752593        8.3554649554       19.7611834366
  O         6.7193926614       10.0795743067       18.5629652242
  H        17.6087897352        6.7851463560        6.1617644393
  H        16.6062451123        6.9297490903        7.5565375017
  C        17.8535643935        5.1974588178        7.6445466051
  H         4.5327020603        6.1888410663        1.3806450793
  H         4.8088620098        7.2616782364        2.7588959864
  C         5.5299749753        8.0245373835        0.7886440726
  C        12.9262951918       -0.5466635768       -2.7847663854
  S         5.3719358822        6.1030697564       21.0824592563
  C         5.9205720921        9.1516882262       20.9984285035
  H        17.5464874918        5.1663287305        8.6791046007
  H        17.6297045623        4.1315503392        7.3274873145
  C        19.3453930441        5.5959798174        7.6275930611
  H         5.5187673547        7.5688782451       -0.1830124253
  H         6.5569808718        8.4731115593        0.7857743738
  C         4.5203717725        9.2114099746        0.8844001857
  H        12.9046534922       -1.6423408824       -2.8273934677
  C        13.3821966257       -0.0468697156       -3.9780924558
  H         5.3777585331        8.4791984777       21.7137231716
  H         5.2973048501       10.0277708496       20.8338624847
  C         7.3940679961        9.4989194168       21.4092305205
  H        19.9848852078        5.0815582367        8.3852484611
  H        19.4161780726        6.7039570244        7.6587720547
  C        19.8531609914        5.1681639269        6.2379798881
  H         4.7538159795        9.9909754636        0.1368381451
  H         3.5027624569        8.8282945040        0.7486393577
  C         4.5073962671        9.9577006984        2.2943743187
  S        13.9442502455        1.5381996430       -4.3637729815
  C        13.2802472324       -1.0504640125       -5.0693048446
  H         7.7532526763        9.0441070817       22.2824090980
  H         7.5079994460       10.5099583096       21.6581683089
  H         8.0555638465        9.2328265505       20.6139344743
  H        19.3578625802        4.3514406181        5.7109188870
  H        19.8227144024        6.1073390629        5.6955311351
  H        20.8736625345        4.8102102857        6.2692973736
  H         4.4395286362        9.2087971348        3.0976348525
  H         5.3914023329       10.5919186538        2.4665887914
  H         3.5669351697       10.5149490568        2.3422660387
  C        14.2575285906        0.8478365848       -5.9813745915
  N        13.8675645543       -0.4412355534       -6.1342607922
  O        12.9811069233       -2.2433137705       -4.9326666033
  S        15.2822149653        1.4789625494       -7.2523037263
  C        14.0308915549       -1.1966607332       -7.4545842387
  H        14.5563945785       -2.1733377248       -7.3363062528
  H        14.6417533964       -0.7147135275       -8.1968295380
  C        12.7197392835       -1.2919910811       -8.1493535484
  H        12.0279326351       -1.9764547791       -7.5985114382
  H        12.7221193788       -1.5271360559       -9.1739435579
  H        12.3294680790       -0.2562614935       -8.0263717205
