352
 i =    52000, time =    26000.000, E =        99.3634458018
  H        10.4106694554        4.0812392957       33.0742908147
  C        10.7669077274        5.0702966813       32.9888367933
  H        10.3238996998        5.6328078808       33.7918711468
  C        10.3787544698        5.8117996020       31.7439353646
  C        12.2845351713        4.8744135073       33.2067891980
  C        10.3995353475        5.0431204220       30.3618946262
  H         9.4212730491        6.3047506253       31.8370515827
  H        10.9957504378        6.7089486697       31.7382602937
  H        12.8450150953        4.6369705073       32.2970629960
  H        12.7774648923        5.8177341626       33.6164910841
  H        12.5992591475        4.1753103167       33.9341293909
  C        10.1071458615        5.9578353125       29.2028215770
  H         9.7011682251        4.2960482338       30.5060352392
  H        11.3612549011        4.5237194428       30.2583850518
  C        10.4535550772        5.4101076410       27.8487818769
  H         9.0660484943        6.2554861785       29.3024187153
  H        10.6374602195        6.8940307317       29.4157693205
  C         9.4074983002        4.6375173335       27.0992653519
  H        11.2584893050        4.6870432056       27.8772176919
  H        10.7329967899        6.2808855032       27.2479073309
  C         8.2958148442        5.5145366439       26.5042920958
  H         9.9373975170        4.0470797014       26.3418909814
  H         8.8914650728        4.0363087648       27.7784882710
  C         7.1230919524        4.8257053187       25.7171190070
  H         7.8042268406        6.0733136236       27.2997445885
  H         8.6564871734        6.2397414025       25.8203164568
  C         6.7371178408        3.5115804219       26.3738661492
  C         7.5982786917        4.1968380553       24.4273318206
  C         5.9375245198        5.7459901368       25.4123304019
  C         7.1061588705        2.4441851561       25.5007655525
  C         6.1919539940        3.1012170692       27.5903144717
  C         7.5837610054        2.8768118036       24.2814368970
  C         7.9518492928        4.8840231897       23.2339694720
  H         6.0927911361        6.5962848610       24.8003460619
  H         5.6882051880        6.2022293109       26.3246649348
  C         4.6903190322        5.0745041984       24.8238789156
  S         6.6720315727        0.9239853201       26.2305193996
  C         6.1600939458        1.7298290347       27.6382063667
  H         5.7342284319        3.8126791184       28.3371752808
  C         8.0400633009        2.2900493054       23.1407352198
  H         8.0017657247        5.9822617475       23.2653103463
  C         8.3504560451        4.2750286985       22.1043285298
  H         4.9578936889        4.8351744502       23.8319914644
  H         4.4585947278        4.1205606809       25.3441741109
  C         3.3459603233        5.7886983386       24.7727669861
  C         5.6570067775        0.9898542131       28.8126781108
  C         8.4098321192        2.9404016811       21.9846906198
  H         8.1918026883        1.2674022049       23.1100298702
  C         8.8565153618        4.7478578060       20.8994072968
  H         2.6056252450        5.2595576086       24.1067040665
  H         3.7160581973        6.7555875977       24.2815177393
  C         2.6308496938        6.0786611775       26.0984048016
  C         5.6437808809       -0.4255448264       28.9295351042
  C         5.3324832671        1.7067784837       30.0500681262
  C         8.9516277654        2.3683838103       20.6924289443
  C         9.1744103882        3.6936395665       20.0378911675
  S         9.1859724965        6.3160379740       20.2000153455
  H         1.9745857793        6.8452321768       25.9691480788
  H         3.3549223327        6.4437511746       26.7505680402
  C         1.9835844724        4.8320395122       26.7369602752
  N         5.9014829393       -1.4003108782       27.9639535547
  C         5.4250186440       -1.0589344951       30.1662535386
  C         4.9460791048        1.0917812375       31.2000367742
  H         5.1648353124        2.7352520419       29.9020870688
  C         7.9505299784        1.6050600996       19.7816668759
  C        10.2253744437        1.6839640543       20.9393789788
  C         9.5347968860        4.1082425162       18.7490892790
  C         9.5750493556        5.4403095711       18.7194018578
  H         1.1070507548        4.6074702532       26.1512885757
  H         2.7662220643        4.0583770025       26.8121921993
  C         1.5607557546        5.0853836048       28.1815242105
  S         6.0368294390       -2.8861089403       28.5998073191
  N         5.6468900336       -2.4284439968       30.1000713126
  C         5.1231280067       -0.3556484575       31.3776975274
  H         4.6849352327        1.6312549793       32.0752005265
  H         7.6739826162        0.5502907204       20.2391140254
  H         8.5332484922        1.5351468664       18.8628286924
  C         6.5362434996        2.2126285971       19.4998325889
  H        10.5324448038        1.5292476697       19.9883899608
  H         9.9603206913        0.8257322177       21.4896941884
  C        11.3750407285        2.5007788844       21.5827843617
  H         9.7729762864        3.3971561217       18.0118587848
  C         9.9544485441        6.1698045431       17.4656919898
  H         0.8213332736        4.2820694418       28.3659779697
  H         1.1437469669        6.1130017745       28.2741086561
  C         2.7120059955        4.7759720135       29.1921845070
  C         4.9759967409       -1.0590799685       32.6363327207
  H         6.3501132638        3.3119523162       19.6900872697
  H         5.9218576664        1.7228742505       20.2779866069
  C         5.9247369591        1.6876660728       18.1630217873
  H        10.9803024134        2.9510093243       22.4994668344
  H        11.6576121915        3.3669762441       20.9450150156
  C        12.6092812966        1.5494017952       21.9358104211
  C        10.0026609512        7.6334598153       17.3518458574
  C        10.3826804023        5.4565883403       16.2605850962
  H         3.1389867983        3.8689600999       28.8773289159
  H         3.5574839903        5.4490440801       29.0543252510
  C         2.2828432324        4.8965128896       30.6285068831
  H         5.0860111394       -2.0780503443       32.6267658409
  C         4.6751889656       -0.5868893784       33.9084843367
  H         5.8689763549        0.6213353220       18.2557773578
  H         6.5740141087        1.9829205291       17.3329040840
  C         4.5804191972        2.2836859055       17.8943516610
  H        12.7355227312        1.1340320070       22.9188651697
  H        12.5562317990        0.6683396559       21.3150980053
  C        13.9838224597        2.2193654053       21.5955864781
  N         9.6248921574        8.5777749409       18.2538253506
  C        10.1899934911        8.2497732321       16.0762995091
  C        10.6813982373        6.0923134595       15.0522684363
  H        10.3576922645        4.3847029954       16.3744242328
  H         3.0791423611        5.2113983086       31.2544895563
  H         1.4582715515        5.6183209513       30.7364525261
  H         1.8375589697        3.9695463091       31.0448650256
  S         4.2392762702        1.0318194561       34.3407020591
  C         4.7294037390       -1.4634655876       35.0551898811
  H         4.6736517428        3.2170582070       18.4379733747
  H         4.5777302437        2.7088847694       16.9205708990
  C         3.3982008110        1.6003736111       18.4554880527
  H        13.9622342211        3.1523897184       22.1587283770
  H        14.0559041212        2.3650529976       20.4914198671
  C        15.1893527507        1.5503560723       22.1933379538
  S         9.6664302870       10.0570667816       17.6118850158
  N        10.0790233292        9.6189670546       16.1043743531
  C        10.5446779167        7.5477440758       14.9246634490
  H        10.8104038434        5.5429292375       14.0618556579
  C         4.1461968677        0.5036652675       36.0079489247
  N         4.2688226367       -0.8497978791       36.1629049338
  O         4.8482090266       -2.6899966399       34.9151252650
  H         2.6665715113        2.3337328926       18.6351725787
  H         3.7399337071        1.2219001415       19.4383598221
  C         2.9047437320        0.6503262232       17.4971195968
  H        14.8628639577        1.3074051020       23.2501863168
  H        15.3938123668        0.7120939168       21.5405698748
  C        16.4957764756        2.4115125173       22.2004403125
  C        10.7927652431        8.2852511894       13.7497112688
  S         3.3891256408        1.3673847297       37.3648180268
  C         4.1547476636       -1.6170914992       37.4011654834
  H         2.3625136543        1.2101162534       16.7918816258
  H         3.5784006726        0.0449868955       16.9265284245
  C         1.9830926801       -0.4489673094       18.1677663264
  H        16.3398174311        3.4014050113       22.7211617018
  H        16.9269298547        2.7344419524       21.2911576341
  C        17.5725912299        1.7423159175       23.0125940480
  H        10.3180012424        9.2343924553       13.7090122982
  C        11.2855716534        8.0167985058       12.4830290484
  H         3.5042492981       -1.1888556758       38.1047332471
  H         3.7307650789       -2.5773269757       37.2781603110
  C         5.4637727318       -1.7487539600       38.0333669958
  H         1.0347928846       -0.0213751388       18.3447984104
  H         2.4667068348       -0.7634381951       19.0632352467
  C         1.8357538758       -1.7644392110       17.2499840345
  H        17.6372125029        0.7235880008       22.6708050457
  H        18.5933945600        2.2572451497       22.8444960459
  C        17.2962660377        1.5783896833       24.4946733996
  S        11.8922476953        6.5843961134       11.8701255313
  C        11.3116666249        9.2004129467       11.5939350266
  H         5.7177510454       -2.8019064028       38.2991949978
  H         6.2316556827       -1.3972900064       37.3600302880
  H         5.4864775194       -1.0947526984       38.9002835389
  H         1.0996334994       -2.4250801007       17.7379986763
  H         2.6994385848       -2.3008898045       17.1756426237
  H         1.4238839834       -1.4150349042       16.3388996221
  H        17.5647813596        2.4460967152       25.0031257651
  H        17.9514555950        0.7561189401       24.8353830129
  H        16.2633317063        1.2766571996       24.6846388629
  C        12.0837007312        7.4760665438       10.4069515557
  N        11.8838091966        8.7584556101       10.4362889840
  O        10.8433964312       10.3085887379       11.8288043314
  S        12.9081796412        6.6857683930        9.0493542994
  C        11.8677312178        9.6112003630        9.2667379821
  H        11.9783493230       10.6671185921        9.3821680935
  H        12.7223311422        9.3614558584        8.6253116552
  C        10.5932007303        9.3252224100        8.5026226841
  H         9.8570676975        8.7360038103        9.0901015130
  H        10.1664877622       10.1707329309        8.0412892346
  H        10.8119418809        8.6379685797        7.6972804977
  H         4.5541328879        1.0026413522       12.2930777601
  C         3.8203822000        1.7226688007       12.5336538431
  H         4.3596879230        2.6287221117       12.8775462544
  C         2.9306129823        1.9985642198       11.2109660705
  C         2.9275088758        1.3492225795       13.6771978632
  C         3.8860657042        2.2770268179        9.9566465424
  H         2.2522052704        2.7577918614       11.4869172199
  H         2.3570989602        1.1561871307       10.8629824571
  H         2.3950989482        2.1885809954       14.0340773616
  H         3.3633530048        0.9050754663       14.5311215088
  H         2.2857913965        0.6207197120       13.2822745294
  C         4.9571160832        1.1355941343        9.8361775440
  H         3.3089405846        2.3906450523        9.0417743502
  H         4.3266796105        3.2752642834        9.9615682626
  C         5.7444564810        1.2902379540        8.4883695660
  H         4.4205747469        0.1806698840        9.9916965635
  H         5.6435193213        1.3221354322       10.6296609233
  C         6.9273354970        2.2708758043        8.4915236011
  H         4.9958146967        1.7410920110        7.7303452714
  H         5.9889149384        0.2837812972        8.0789051424
  C         8.2860001204        1.6410612211        9.0035167873
  H         7.0283539815        2.7565923008        7.5997107607
  H         6.7545293491        3.1040109378        9.1236641297
  C         9.3367900373        2.7639757827        9.1385471935
  H         8.5741678485        0.7492498821        8.4926080752
  H         8.2464043168        1.3303238391       10.0383069586
  C         8.9070354996        4.0687427786        9.8756742760
  C         9.7219454705        3.5060814327        7.9027288801
  C        10.6233999766        2.2736846524        9.8441212765
  C         9.0445395722        5.1877187186        9.0564409839
  C         8.4280530638        4.4407627756       11.1607832729
  C         9.5991515100        4.8673209825        7.8185469409
  C        10.2423138590        2.8895029747        6.7730700795
  H        10.4118007540        1.7545844671       10.8307158098
  H        11.0745303995        1.4348152315        9.2728456384
  C        11.8341460768        3.2356856962       10.0737686645
  S         8.4469447501        6.6321959326        9.7743087388
  C         8.1262048374        5.7623290456       11.2250823569
  H         8.3208519951        3.7300408643       11.9195988332
  C        10.0204502924        5.5061242732        6.7112723727
  H        10.2417420665        1.8071976230        6.7858611329
  C        10.5558928662        3.5215857691        5.6301460234
  H        11.4067017784        4.2363062877       10.1833064760
  H        12.4655428604        3.3810945691        9.1789948932
  C        12.6975421994        2.6944347064       11.1430125279
  C         7.6223500427        6.4537239020       12.4548418002
  C        10.4086878809        4.9028545967        5.5517752196
  H         9.8837258852        6.6326708984        6.7888309962
  C        10.9842154462        3.2055656537        4.3432071910
  H        13.7759761613        2.9448462192       10.9598931988
  H        12.6470156779        1.6378056643       11.0219684159
  C        12.2569361861        2.9648864943       12.6742892705
  C         7.5834559912        7.8504503874       12.7260839282
  C         7.3589545142        5.6118252502       13.6851202626
  C        10.7575479505        5.5875024040        4.2835392655
  C        11.0689641940        4.2727636936        3.4780397501
  S        11.3314210456        1.7266508939        3.5589299104
  H        12.4076604395        4.0298882869       12.8177424271
  H        11.1837381624        2.7389669307       12.6069130288
  C        12.8820442323        2.0688097095       13.7530330930
  N         7.7895511147        8.8514499055       11.7906257346
  C         7.2251909666        8.3375467929       13.9688653030
  C         7.0934280872        6.0716339588       14.9513381929
  H         7.0381243056        4.6069649206       13.5636804378
  C        12.0048668017        6.5486394470        4.4034612236
  C         9.5756978816        6.3395801725        3.7514447655
  C        11.4017248049        3.9499993206        2.1653773924
  C        11.5013199648        2.5771170549        2.0397928096
  H        13.8383295057        2.3600376128       13.9974641952
  H        12.8756332939        1.0051959821       13.4831965155
  C        12.2004890444        2.2844338468       15.0710310085
  S         7.4452459000       10.2896815512       12.4649343964
  N         7.0782615765        9.7280722810       13.9724655046
  C         6.9516335188        7.5489759809       15.1403421864
  H         6.8709663867        5.4184304666       15.7335660432
  H        11.7041952142        7.4510900652        4.8823016827
  H        12.0938102455        6.9536169334        3.4183081830
  C        13.2092367963        5.7758590041        4.9895788879
  H         9.3334376593        7.1541385000        4.3920121863
  H         9.9275812373        6.7659165298        2.7873708705
  C         8.3088772738        5.5482639139        3.4575526232
  H        11.5319896237        4.7066095418        1.4149196896
  C        11.7803606743        1.8935510448        0.7145083555
  H        11.7998358514        3.2910162446       15.1733183244
  H        11.3340376408        1.6517208522       15.2871500165
  C        13.3748617298        2.1962474654       16.1165974131
  C         6.6699162726        8.1983342115       16.3834215533
  H        12.9355946612        5.2458269480        5.9866755511
  H        13.3859916410        5.0888535794        4.2298837321
  C        14.4835743180        6.6088235796        5.3722874499
  H         7.9226373394        5.0599024578        4.3509605265
  H         8.4447624292        4.9504325338        2.5517495616
  C         7.1963739722        6.5601612542        3.0187915695
  C        11.8917388785        0.4726760152        0.5462413199
  C        12.0615749292        2.6591932205       -0.5067957903
  H        14.1321544076        2.9538197958       15.8616495269
  H        13.9010977744        1.2065412552       15.9601822566
  C        12.9386007875        2.5154660129       17.5101841139
  H         6.6725100764        9.2020056919       16.3451564606
  C         6.4118906037        7.7399977853       17.6284007867
  H        14.3943699015        6.9767682116        6.4342728106
  H        14.6738935456        7.3920031326        4.6752953924
  C        15.6877941233        5.6340384696        5.3052356155
  H         6.9176502593        7.1298415477        3.8780050667
  H         7.5353180958        7.1855564931        2.2488155121
  C         6.0077315492        5.8162088238        2.4652102143
  N        11.4852172353       -0.4739660355        1.4176335898
  C        12.2051533759       -0.0928553696       -0.6181291269
  C        12.3419180434        2.0379801460       -1.7102133843
  H        11.9767707042        3.7498716207       -0.4591332859
  H        12.6528427478        3.5825042648       17.6069435697
  H        13.6220535517        2.3639167914       18.3011964364
  H        11.9932953719        1.8685123268       17.6978351432
  S         6.1966824792        6.0955380919       18.0817760456
  C         6.2689360321        8.6739717819       18.7646286067
  H        15.4223620801        4.7335604145        5.9008176399
  H        15.7855376952        5.3173924817        4.2292543988
  C        16.8856980855        6.3162931403        5.9056350364
  H         5.5511627395        5.2854424533        3.2064602718
  H         6.4094034155        5.1251805055        1.7656368137
  C         5.0666191488        6.8300650761        1.7729896156
  S        11.7108630588       -1.9661090601        0.8276412150
  N        12.1477975393       -1.4702829345       -0.6465761358
  C        12.4161331038        0.5585335343       -1.8358123710
  H        12.3845287700        2.6653861816       -2.5747007581
  C         5.8989415971        6.7015947727       19.7104575281
  N         5.8107106624        8.0322746393       19.8526692168
  O         6.4405356342        9.8899976865       18.6626727807
  H        17.4895666958        6.7525212109        5.1478126522
  H        16.5523321860        7.2235831515        6.3633718420
  C        17.7667552344        5.6284255443        6.9976792947
  H         5.5506278188        7.4575354522        1.0572965800
  H         4.4225939425        6.2365456320        1.1230446059
  C         4.3475423583        7.8499210218        2.5816532202
  C        12.5859075636       -0.1768127408       -3.0239752514
  S         5.3566330333        5.6997809743       20.9898583850
  C         5.8050680616        8.6933593430       21.1304445633
  H        17.1153129380        5.6380968898        7.8231434587
  H        17.9030209713        4.5468058679        6.7940311807
  C        19.0927799728        6.3020251676        7.3106008906
  H         5.1133105505        8.5212720507        3.0778196746
  H         3.6923067315        7.3649884199        3.3634001924
  C         3.3226160091        8.6597323138        1.7993262300
  H        12.1717523002       -1.1630515182       -3.0662437781
  C        13.0777914307        0.1582367414       -4.2653951549
  H         4.9906313413        8.1176938790       21.6172645667
  H         5.4344547114        9.7450616969       21.1266510348
  C         7.1312760461        8.6975523601       21.8077526976
  H        19.4153011082        6.0442056882        8.2577200360
  H        19.0969864681        7.3931601701        7.2901966185
  C        20.1519718543        5.8676907392        6.2906635721
  H         2.7949518131        8.0544119658        1.0952785943
  H         2.5546860535        9.0697974427        2.4650407241
  C         3.9309257302        9.7858432835        1.0746495971
  S        13.7159672172        1.7474903691       -4.6034615761
  C        13.0112747436       -0.7588131522       -5.4124413417
  H         7.5358845381        7.7184991796       21.9670420215
  H         7.1053231771        9.2162100750       22.7864000076
  H         7.9319510041        9.1868392684       21.2437325183
  H        21.1093450580        6.1653219008        6.7050922955
  H        19.9856229293        4.7806965943        6.0768505760
  H        20.0278458529        6.4387196512        5.4027277665
  H         5.0221376174        9.7573969753        1.0586071701
  H         3.6346353817        9.7875011598       -0.0110338790
  H         3.7253164718       10.6920954128        1.6173820792
  C        14.0078606066        1.1419230399       -6.2286375324
  N        13.7042150266       -0.1630533253       -6.4561809042
  O        12.5514848327       -1.8600592085       -5.3243671537
  S        14.6729307866        2.1447878549       -7.5158247105
  C        13.7635924245       -0.8634832161       -7.7772705685
  H        13.8525149615       -1.9520298127       -7.5229268823
  H        14.5783429192       -0.3602299626       -8.4463131064
  C        12.3590322630       -0.7823508394       -8.3913434056
  H        12.3376755738       -1.0495958654       -9.4137833831
  H        12.0420600063        0.2353480383       -8.3240283538
  H        11.7247473067       -1.3558330553       -7.7918547203
