352
 i =    48000, time =    24000.000, E =        97.1456497578
  H        10.8859511275        4.5327606815       32.5832550771
  C        10.6285875101        5.6028415896       32.5252131868
  H         9.8926082602        5.9097513499       33.3266041110
  C        10.0474932661        5.8289219571       31.2067441915
  C        11.7843214611        6.5411390816       32.7987980034
  C        10.8239150282        5.3856891271       30.0234660731
  H         9.1179899402        5.2426350896       31.2758134912
  H         9.7510962045        6.8784347446       31.2318739085
  H        12.6759400059        6.1495161919       32.3141186846
  H        11.6108180368        7.5722468259       32.4297059004
  H        11.9558621885        6.5177194509       33.8707630256
  C         9.9338653399        5.4363509423       28.7836565005
  H        11.2844210669        4.4270576066       30.2084278868
  H        11.6740748315        6.1456723883       29.9050611904
  C        10.7708172782        5.5960089219       27.5376122821
  H         9.2826962206        4.5026495535       28.7599282846
  H         9.2705058782        6.3298642735       28.9455431039
  C         9.9010786367        5.2292106959       26.3424063619
  H        11.6776180118        5.0344755664       27.6463874470
  H        11.1026268443        6.6374761716       27.3614341595
  C         8.7198745326        6.2025027994       26.0823875895
  H        10.3561303657        5.0928214211       25.4178368113
  H         9.5545670066        4.3127122047       26.6043030226
  C         7.4943592837        5.4303079119       25.4321354966
  H         8.2627174633        6.4419075662       27.1050289039
  H         9.1027747510        7.0232725207       25.4984047661
  C         7.2198725634        4.0556399935       26.0151955988
  C         7.8543232273        4.6858957364       24.1678460649
  C         6.2546410301        6.2494934406       25.2490744045
  C         7.3898579588        2.9486567179       25.2061758034
  C         6.6993115435        3.7096845891       27.2444745749
  C         7.8282505923        3.3385643552       23.9891649113
  C         8.1717598889        5.3109875014       22.9917379001
  H         6.4794987457        7.1440324471       24.6821674397
  H         6.0446127129        6.5923512377       26.2564628284
  C         5.0477525718        5.5545379527       24.5984483255
  S         6.9551684128        1.4867010847       25.9612749366
  C         6.5745783629        2.3477532281       27.3725768343
  H         6.4590934573        4.3800992630       28.0032720212
  C         8.0429115862        2.6970034147       22.7980593699
  H         8.1357294422        6.4035900705       22.9993633730
  C         8.4503230420        4.6889817428       21.7825971684
  H         5.0893480139        5.3480637234       23.5418317551
  H         4.9394988860        4.5872571680       25.0052862145
  C         3.8071796573        6.4186661780       24.7580139533
  C         6.1761544083        1.5922600663       28.6035915962
  C         8.3797211093        3.3334040530       21.6313897784
  H         8.0094089748        1.6308142906       22.7877103892
  C         8.8282130849        5.0732235735       20.4847939773
  H         3.1043054414        5.9840517267       24.0712890613
  H         4.0171590962        7.3303241058       24.3354488383
  C         3.2867928158        6.6468207663       26.0992288284
  C         6.1816425489        0.2123797721       28.8119403937
  C         5.6608116273        2.4452463876       29.7282006410
  C         8.7058316110        2.6787945104       20.3833476893
  C         8.9437323898        4.0090967431       19.6321048170
  S         9.2814668985        6.5688079893       19.7872333299
  H         2.3049157592        7.1505823059       26.0632742624
  H         3.8594864960        7.2107103575       26.8428590235
  C         2.7423346009        5.3515483812       26.7502156593
  N         6.3928160440       -0.7414266799       27.8135717210
  C         5.7478345614       -0.3500254995       30.0027692681
  C         5.2094288828        1.8841794576       30.9327143378
  H         5.6276088693        3.4547026636       29.6218291696
  C         7.6362742476        1.8890613824       19.7828416708
  C        10.0089561828        1.8801515256       20.4618440714
  C         9.2470035989        4.4465625610       18.3045135191
  C         9.6259911152        5.7784124030       18.2600305065
  H         2.3980251140        4.5719599750       26.0990824355
  H         3.5293581749        4.8974418864       27.1726712724
  C         1.7554571846        5.6201239259       27.8873958603
  S         6.1496740704       -2.2234092890       28.4933152483
  N         5.8274655634       -1.7713307866       30.0013100634
  C         5.2121102441        0.3718114798       31.1232032232
  H         4.7797240001        2.6095168924       31.6998312122
  H         7.3854497730        1.1254413770       20.5509293062
  H         7.9967998557        1.3206135106       18.9480858600
  C         6.2582400164        2.5592513940       19.5321512232
  H        10.3080557180        1.5262681197       19.4853615249
  H         9.8310619106        0.9107035372       20.9093683992
  C        11.2326840488        2.6183628769       21.0196434909
  H         9.2626771394        3.6986175572       17.5356080985
  C        10.1245540240        6.4093863874       16.9636697238
  H         0.9857329523        4.8039100172       27.8786165143
  H         1.2018376280        6.5633477766       27.7695761788
  C         2.5323719073        5.6363950807       29.2927847551
  C         4.8603467715       -0.3499895085       32.3178331703
  H         6.3369731393        3.5025211571       19.9863763765
  H         5.6174766224        1.9810949289       20.2554126592
  C         5.5835939040        2.6154484327       18.1627792548
  H        11.0052388164        3.2942405998       21.9040160412
  H        11.4068212922        3.3081933167       20.2027768936
  C        12.4700964613        1.7288331108       21.2288591789
  C        10.1741701593        7.7994002218       16.7761160780
  C        10.2982515452        5.5853693804       15.7784543892
  H         3.0342387698        4.7159082941       29.5425530534
  H         3.3820957328        6.4055513995       29.2158854269
  C         1.5963044733        6.0501709021       30.3317243738
  H         4.5794935487       -1.3865264565       32.1383149605
  C         4.6507864719        0.0460471872       33.6186698588
  H         5.7314526490        1.6692121575       17.6537894037
  H         5.9268583160        3.4422014369       17.4635899352
  C         4.0552076154        2.8363235999       18.1921568583
  H        12.3636846777        1.2042340898       22.1426196788
  H        12.5350327310        0.9702738631       20.4803045419
  C        13.7987302389        2.4953581997       21.3210195611
  N        10.0253973170        8.6989765384       17.8161415944
  C        10.3176944696        8.3548431183       15.5626654884
  C        10.4214462554        6.1277230795       14.4731606714
  H        10.2598728093        4.5599693429       15.8041025547
  H         1.1179797770        5.1706842779       30.7298488485
  H         2.1540064624        6.5269039110       31.1978600882
  H         0.9935442125        6.8820678479       29.9903430558
  S         4.4771615157        1.6549018375       34.1871435878
  C         4.6235097505       -0.9345269947       34.7202841609
  H         3.9563973914        3.6831227923       18.8622200714
  H         3.7567295042        3.2018352152       17.2030423889
  C         3.2338463775        1.7134494216       18.7149606995
  H        13.6456663334        3.4348849794       21.8944176891
  H        14.1509866994        2.8374527901       20.3232194946
  C        14.8915316163        1.7945208445       22.1280857525
  S        10.0601631611       10.2157375138       17.1890472213
  N        10.4337938950        9.7326889280       15.6572601893
  C        10.5328166313        7.5928242564       14.3394197379
  H        10.5406529389        5.4012063497       13.6397504676
  C         4.3619015112        1.0882373621       35.8017855972
  N         4.3999615080       -0.2325642100       35.8808316705
  O         4.8055250916       -2.1371915866       34.5317274475
  H         2.1821952864        1.9511374866       18.8889152286
  H         3.5313297841        1.4743636250       19.6758164447
  C         3.1665928999        0.4600531726       17.9332229316
  H        14.5467556231        1.5061233944       23.1501416269
  H        15.1550389183        0.8566474608       21.7327135551
  C        16.0608269643        2.8189445815       22.1113938750
  C        10.9525959667        8.3057863565       13.1751262154
  S         3.8915000401        2.0373367415       37.1373599093
  C         4.3541785517       -0.9907767774       37.1267110824
  H         2.6884748499        0.6341095853       16.9068878026
  H         4.2355727091        0.0677014871       17.6911059227
  C         2.3218505208       -0.5482413148       18.7010995310
  H        15.6960625877        3.7388184558       22.5144139880
  H        16.4133688029        3.0590704554       21.1148110660
  C        17.2876169429        2.3449701543       22.9607729331
  H        10.6962789145        9.3346466437       13.2812564289
  C        11.6092211486        8.0430316008       12.0646661539
  H         3.6521492445       -0.5288557362       37.7861373520
  H         4.0094143999       -2.0453287991       37.0587180704
  C         5.6754208370       -0.8379913472       37.8760509325
  H         1.3781265347       -0.0850067492       18.9544570095
  H         2.7130070669       -0.6169931332       19.7193180439
  C         2.0297090582       -1.8195961122       17.9057996194
  H        17.5473881155        1.3397658251       22.7414241174
  H        18.1056084403        3.0866754506       22.8050448857
  C        16.9566388733        2.2912583828       24.4461338837
  S        12.1969738764        6.4792798895       11.5782528507
  C        11.6503617776        9.1132129076       10.9293107302
  H         5.7334404754       -1.5902217439       38.6988591233
  H         6.5216700768       -0.9429764115       37.1781370776
  H         5.6963951355        0.0897969121       38.4682507344
  H         1.1271067831       -2.3122865588       18.2506719782
  H         2.8532600242       -2.4914815332       17.9738456982
  H         1.9968721861       -1.5409352288       16.9041269804
  H        16.8131814381        3.3069542837       24.7912905352
  H        17.7029381358        1.8382733160       24.9347117359
  H        16.0303152202        1.8193459159       24.7038980628
  C        12.6050331588        7.2643587746       10.0365326526
  N        12.2727499734        8.5603550632        9.8463661262
  O        11.1781893180       10.2567263565       11.0020724732
  S        13.1459519272        6.3743733013        8.5998097058
  C        12.3163824278        9.2283163405        8.4989389988
  H        12.3049940276       10.3004321915        8.7717937358
  H        13.2935264413        9.0913732220        8.0258297002
  C        11.1684047840        8.7509179196        7.5890852252
  H        10.7036711980        9.5346615377        7.0510475435
  H        11.5871360683        8.0611898520        6.8754352893
  H        10.5506267718        8.1901211636        8.2680524250
  H         2.8716066243        4.0920511101       11.8604609275
  C         2.6000677578        3.1184935137       12.2635061870
  H         1.5029714304        2.9361944754       12.1911616291
  C         3.2997217108        2.0348904276       11.4714153717
  C         2.9399755714        3.0559275637       13.7179533235
  C         3.7471403008        2.4784669276       10.0347635043
  H         2.6728374826        1.1513917897       11.3969563827
  H         4.1875818632        1.7079672898       11.9843461606
  H         3.1332238866        2.0524710128       14.0077972359
  H         2.1174858852        3.5030752020       14.2604964059
  H         3.8971171210        3.5134802136       13.9643996639
  C         4.5438814110        1.2681254946        9.3204424011
  H         2.8531037903        2.6875658407        9.5842848644
  H         4.1849105303        3.5159339387       10.0060504116
  C         5.4656336463        1.5359031680        8.1199871014
  H         3.9267582463        0.4171712296        8.9763063390
  H         5.0886522418        0.7656168294       10.1160959962
  C         6.6557164572        2.4594371531        8.3298287741
  H         5.0162112384        1.9644574592        7.1927705368
  H         5.9960755891        0.6469057840        7.8617216514
  C         7.8471071443        1.7378205600        9.0942691859
  H         7.0108994395        2.7562816688        7.3182427799
  H         6.2881094393        3.2757734150        8.9670271755
  C         9.0383729250        2.6203533142        9.3859656263
  H         8.2195799544        0.9712256479        8.4677601123
  H         7.4480748911        1.3001418674        9.9389313822
  C         8.6550780191        3.9919007593        9.9686193467
  C         9.4251994830        3.3321455322        8.0788696532
  C        10.2578670208        1.9416940066       10.0936192133
  C         8.9805250548        5.1089399397        9.1976883673
  C         7.9792971830        4.4494820824       11.1138939458
  C         9.4643567517        4.6664984391        7.9420164237
  C         9.9183499110        2.6835479308        6.9070928259
  H         9.8508495290        1.6855098296       11.1285738751
  H        10.4947779803        1.0042026508        9.6254441638
  C        11.5242265474        2.8006440554       10.1079713764
  S         8.6052406062        6.6863573893        9.8963262143
  C         7.8638402961        5.8262752913       11.1979080374
  H         7.7251378606        3.7290634882       11.8219809387
  C         9.8042322944        5.2873038673        6.7427949029
  H        10.0165338187        1.6248830195        6.8320671232
  C        10.3378855270        3.2702909501        5.6986557361
  H        11.2863112875        3.8077056909       10.3763846837
  H        11.9072732603        2.7993425265        9.0632013093
  C        12.5372247015        2.3084482478       11.1743913794
  C         7.3896881183        6.5754434494       12.4020019040
  C        10.2729499015        4.5655260051        5.6383340602
  H         9.7597009759        6.3783944962        6.6058835877
  C        10.8164215081        2.8253459387        4.4777346183
  H        13.3475028054        3.0360790490       11.1225255258
  H        12.7939002562        1.2482117879       11.0204000434
  C        11.9255698448        2.3903017361       12.5904523492
  C         7.5980743718        7.9635611808       12.7031666576
  C         6.8147636450        5.7754371044       13.5121748323
  C        10.6670605859        5.2518618361        4.3534524317
  C        10.9100764519        3.9028170958        3.6482280534
  S        11.1293597697        1.3050092097        3.7279659608
  H        11.3851190738        3.3067898135       12.8124753996
  H        11.0849226740        1.6604035088       12.6067502165
  C        12.9316175354        2.1300404582       13.6177405953
  N         8.1840201302        8.9429990106       11.8489528760
  C         7.3047054707        8.5165728878       13.9626568624
  C         6.6108153273        6.3306832912       14.7848813252
  H         6.6901987352        4.7036213982       13.3723765243
  C        11.9782349328        6.1041778696        4.4504813197
  C         9.5850891357        6.1085274108        3.6472450931
  C        11.3197225105        3.4635186062        2.3585319820
  C        11.4172084849        2.0999190631        2.2262230304
  H        13.9132656347        2.4180273217       13.3873643995
  H        12.9617097361        1.0564424701       13.7176348138
  C        12.4540466194        2.6986298067       14.9722807621
  S         8.2065367583       10.3702908984       12.6568473090
  N         7.6235870142        9.8496061023       14.0781007974
  C         6.7980091431        7.7723284336       15.0724027746
  H         6.2435366776        5.7026404331       15.5709144759
  H        11.8378963495        7.0904052092        5.0129939339
  H        12.1577165493        6.4282370706        3.4412838070
  C        13.1825380296        5.2515879945        4.9105250987
  H         9.2735436857        6.8611003416        4.4068498051
  H        10.0961056110        6.6648626672        2.8918031044
  C         8.3844238719        5.4618752317        2.8912012002
  H        11.3101523741        4.2690971488        1.6212945276
  C        11.6436463897        1.3432112448        0.9699059786
  H        12.2185753159        3.6936460291       14.9339777616
  H        11.5115524912        2.2199386039       15.1526400238
  C        13.5126233499        2.4790880865       16.0512497455
  C         6.6339996104        8.4882884065       16.2738004881
  H        12.9216035681        4.9178589266        5.9024669736
  H        13.3710451978        4.3767910485        4.3846675603
  C        14.4811907143        6.0777041852        5.1185480416
  H         7.8434773686        4.6980732498        3.4707574042
  H         8.7687510437        4.8443232980        2.0754113267
  C         7.5174803670        6.5186344183        2.2460963711
  C        11.6542400888       -0.0835991919        0.8140869405
  C        11.8410587891        2.2044951161       -0.2789534003
  H        14.1428761185        3.3039078918       16.0251401291
  H        14.1126408154        1.5616088899       16.0629895205
  C        12.8439042174        2.5777022295       17.4264527194
  H         6.6138266288        9.5357486627       16.2098764945
  C         6.5192588824        8.1187312165       17.5764381432
  H        14.3176708816        6.8954428059        5.8592417648
  H        14.9134786674        6.6331908342        4.2824378125
  C        15.6342144026        5.1135442249        5.6713376278
  H         7.2802333029        7.2350463052        3.0157782256
  H         7.9494828755        7.0541256047        1.3901664051
  C         6.2320223626        5.8628136671        1.8137121954
  N        11.5021471643       -1.0917082697        1.7834190169
  C        12.0587669826       -0.6250793333       -0.3903695796
  C        12.0621815398        1.6020481973       -1.5222071069
  H        11.8683573361        3.2645458859       -0.2868479410
  H        13.5966605971        3.1757845560       18.0519872110
  H        12.6933417550        1.4660972220       17.7819716787
  H        11.9460497145        3.1333752430       17.4893200247
  S         6.2621143971        6.5155238210       18.1488984480
  C         6.3896051696        9.1383904341       18.6218830512
  H        15.3608721051        4.5243447647        6.5071311226
  H        16.0735811468        4.5454857323        4.8247657639
  C        16.6928314510        6.0325409775        6.2821396330
  H         5.7946954950        5.2986478703        2.6482321786
  H         6.4506645586        5.0436569616        1.0928762512
  C         5.2456405829        6.8407137205        1.2591102717
  S        11.7889273235       -2.5724138978        1.0973585465
  N        12.1974564201       -2.0302874571       -0.3675222231
  C        12.2674135914        0.1372147573       -1.5705491185
  H        12.1618174550        2.2483647592       -2.4196564493
  C         5.8674387750        7.2218941089       19.8005992696
  N         5.9700402108        8.5757049592       19.8056213471
  O         6.5935693247       10.3657488867       18.5063728274
  H        16.8417783422        6.9817777782        5.7892126798
  H        16.4678267772        6.3660858737        7.3279175370
  C        18.0797501805        5.3180806404        6.3332235597
  H         5.7616581101        7.5244357180        0.6228109812
  H         4.6576122408        6.2282832838        0.5312201251
  C         4.3621400684        7.4229259070        2.4146232906
  C        12.6811744922       -0.5609201480       -2.7779235137
  S         5.5508608602        6.1209927067       21.1659046669
  C         5.9686375609        9.2857639665       21.0365284377
  H        17.8758693860        4.3504813721        6.8096179615
  H        18.5021431500        5.1733062671        5.3830069799
  C        19.0206447712        6.1333650812        7.2348068847
  H         5.0016820899        7.7655338246        3.1683706488
  H         3.6941953842        6.6708479054        2.7756324966
  C         3.6118621318        8.7046124386        1.9872582011
  H        12.4977542891       -1.6425112601       -2.7621035378
  C        13.2540140437       -0.2083038721       -3.9957749446
  H         5.2828061065        8.7899974201       21.7294713497
  H         5.3077180061       10.1567297001       20.9312162704
  C         7.3705934924        9.5893220693       21.5927217523
  H        18.9077724317        5.9735683977        8.3204158139
  H        18.8632558105        7.2202842408        7.0685814964
  C        20.5252092545        5.9918995511        6.9364590893
  H         2.6366422328        8.4176645684        1.5979181829
  H         3.4398275111        9.3394403021        2.8484857376
  C         4.1617540249        9.7311840399        0.9409455996
  S        13.9740622563        1.3517671201       -4.3896875842
  C        13.2961376087       -1.2394866283       -5.1000389146
  H         7.5333340356       10.6342450056       21.6815225073
  H         8.1491496792        9.0535144070       21.0988509230
  H         7.2995435923        9.1518220829       22.5362540427
  H        20.8829825763        4.9565475230        6.9817283940
  H        20.6924460958        6.3881271719        5.9578793421
  H        21.1561695952        6.5168441117        7.5812137150
  H         5.0533414835       10.0541629333        1.4301361764
  H         4.3479109598        9.2347085157       -0.0526487551
  H         3.4989789158       10.5741870284        0.8435096187
  C        14.3918608360        0.5899255044       -5.9672001872
  N        14.0215660631       -0.6886473284       -6.1514188151
  O        12.9431833459       -2.3713603903       -5.0381055242
  S        15.0384568804        1.4824240123       -7.3397564710
  C        14.1504491176       -1.3555757091       -7.4815726151
  H        14.2722126912       -2.3734124037       -7.2306793361
  H        15.0828036774       -1.1154770785       -8.0144003249
  C        12.9365996903       -1.0143858968       -8.3440182716
  H        12.6229251063       -1.8771658824       -8.8769375570
  H        13.2012364058       -0.2182309912       -8.9656905084
  H        12.1793707394       -0.6928069096       -7.6101095927
