352
 i =    70400, time =    35200.000, E =        99.5019855758
  H        10.7390353435        7.6582222494       32.3087355163
  C        11.0228728793        6.6087861166       32.4063563188
  H        12.0396764972        6.5171459446       32.0186651796
  C        10.2283148277        5.7097180961       31.5135418980
  C        10.9124252908        6.1724432055       33.8731151024
  C        10.3665315830        6.1850736373       30.1062087799
  H        10.5036326072        4.6454418303       31.6019658928
  H         9.1853775525        5.8200097260       31.9252661506
  H        10.0340262178        6.3969105361       34.4754314400
  H        11.1196350974        5.1428763872       33.6807920970
  H        11.7386859456        6.4957489946       34.4708582798
  C        10.1366102181        5.1061434922       29.0029975996
  H        11.2926787570        6.7870715461       29.9413467532
  H         9.6032542183        6.9494312667       29.9486355139
  C        10.7676024893        5.6406886515       27.6686317249
  H        10.7797181701        4.2032906483       29.2001441461
  H         9.0791765460        4.8459773474       28.8179005459
  C        10.0155788568        5.0572444567       26.4153939277
  H        11.8378601968        5.6698972075       27.5986265608
  H        10.5183709236        6.7074564039       27.5434104964
  C         8.6872120905        5.8223339438       26.1088390069
  H        10.6942191609        5.0148416461       25.6045502420
  H         9.7861307283        3.9855917930       26.6084889337
  C         7.6152685160        5.0861770543       25.3359452917
  H         8.2863681327        6.2795220049       27.0038996556
  H         9.0867834810        6.7191837695       25.5509027085
  C         7.2579527770        3.6703552110       25.9246919386
  C         8.0739234267        4.3789776271       24.0810748232
  C         6.2889421305        5.9144032406       25.1966311276
  C         7.4980468271        2.5948755358       25.1039392394
  C         6.7125036867        3.2742761222       27.1572366481
  C         7.9793816769        3.0276330192       23.9534794347
  C         8.5308016100        5.0465191919       22.9268168184
  H         6.5999029828        6.8668468454       24.7582440436
  H         5.9414875186        6.0924654318       26.1980804981
  C         5.2632348089        5.3224997342       24.3390993490
  S         7.0620554523        1.0887484581       25.7534934529
  C         6.4371939945        1.9332521693       27.1729233480
  H         6.5389901050        3.9878424482       27.9360360264
  C         8.3981375701        2.4692717316       22.7612514564
  H         8.5425147987        6.1670236059       22.9917106155
  C         8.9343482238        4.4530998646       21.7108222481
  H         5.8033940405        5.0954727957       23.4433877519
  H         4.9310322138        4.2819837031       24.5864250815
  C         4.0992236753        6.1269212311       23.9431107627
  C         5.8661130686        1.1567356039       28.3811429897
  C         8.9024211452        3.1204291536       21.6156095457
  H         8.2836600078        1.4120052216       22.7160129097
  C         9.3970830815        4.9261064422       20.4926804121
  H         3.4708852113        5.7058118621       23.1872952002
  H         4.4253667078        7.1008658713       23.5829135693
  C         3.2623434607        6.3420411704       25.1965571857
  C         6.0130705422       -0.2066868109       28.5987640648
  C         5.3613270110        2.0598792533       29.4594177237
  C         9.2141294871        2.5625756362       20.2852190991
  C         9.4751853591        3.9104135647       19.6232622684
  S         9.7617057857        6.5591726949       19.9503033180
  H         2.3629687466        6.9419531422       24.9713090184
  H         3.8073635407        6.8942468387       25.9071231438
  C         2.7930953214        5.1324322611       26.0088186604
  N         6.4745906363       -1.2205950949       27.6741053646
  C         5.8383476698       -0.7207779957       29.8881818176
  C         4.9978727635        1.4687880442       30.6665918258
  H         4.9301770566        3.0116260933       29.2376110651
  C         8.1101629787        1.8270305636       19.5788815784
  C        10.5249477207        1.7323379600       20.3708528371
  C         9.6885892499        4.3742112541       18.3296763152
  C         9.8841644888        5.7520365376       18.2932975606
  H         2.1923579391        4.5053814155       25.4078258064
  H         3.6522050432        4.5134548897       26.3394612713
  C         2.0050514937        5.4552345009       27.1744844524
  S         6.5293482212       -2.6259572426       28.4759895490
  N         6.1275299031       -2.0942506644       30.0071438889
  C         5.3349584161        0.0821743018       30.9837654629
  H         4.5333460034        2.0766323550       31.4796002268
  H         7.8461363707        0.9579364516       20.1533723495
  H         8.4151808314        1.4780939698       18.5668752843
  C         6.8768114951        2.7152684556       19.2516632572
  H        10.6734903049        1.2558087254       19.3575186512
  H        10.3366418236        1.0212305589       21.1512173444
  C        11.8119116435        2.4690279205       20.8969869199
  H         9.7580958121        3.6416950794       17.6086502525
  C        10.2216148076        6.5305018462       16.9884175407
  H         1.2087703414        4.6520337963       27.3243490612
  H         1.4724879116        6.3901595208       27.0445506031
  C         2.7062469717        5.4398006999       28.5372241769
  C         5.1322192079       -0.5682355326       32.2622435167
  H         7.2535461479        3.3947982937       18.5438558028
  H         6.4846489551        3.2473362203       20.0825575910
  C         5.7232788661        2.0410318247       18.5636687521
  H        11.5794075800        2.7629177127       21.9093789589
  H        11.9408084023        3.4098888610       20.3654872840
  C        13.1203142633        1.7273286445       21.0369086700
  C        10.2001806133        7.9471030183       16.9174288086
  C        10.5330646250        5.8195741113       15.7137417969
  H         2.9407224049        4.4228607306       28.8239298662
  H         3.5886200045        6.0420592138       28.6082071199
  C         1.7510005824        5.8027656482       29.7036242880
  H         5.3251372373       -1.6393734773       32.3211272024
  C         4.7827686978       -0.0825907527       33.4522330183
  H         5.1560287716        1.6207094643       19.3546135463
  H         6.0753596258        1.2065978446       17.9729717495
  C         4.7729979610        2.9653577458       17.7194512182
  H        13.1117292179        0.9465306640       21.8306136029
  H        13.2675016009        1.1990961026       20.0491051465
  C        14.4028862900        2.5780422335       21.2376162865
  N         9.9516676642        8.7808547493       17.9423546744
  C        10.4741318172        8.5814297493       15.6858556418
  C        10.7908673401        6.5291765336       14.5460350198
  H        10.5775970641        4.6850905796       15.7090837370
  H         1.5815597547        6.8906395119       29.7325022576
  H         0.7076013895        5.3139109479       29.7183074279
  H         2.1968708022        5.5347528593       30.7193306910
  S         4.4212422260        1.5651951305       33.9308064162
  C         4.7556526469       -1.0458521441       34.5814294996
  H         4.7791558946        3.9509679677       18.1456785089
  H         5.0729958850        3.0394110119       16.6824118127
  C         3.3324488225        2.5484390501       17.7377941943
  H        14.2054628489        3.4627457892       20.7810510497
  H        15.1881132315        2.0989293633       20.6441895375
  C        14.8190227529        2.6323633801       22.6726523737
  S         9.8408159952       10.2606323037       17.3956736041
  N        10.3362005962        9.9771968314       15.8982673162
  C        10.7429735213        7.9595761438       14.4579414853
  H        10.8833106240        5.9123629700       13.6348664043
  C         4.3456738452        0.9233478303       35.5814256426
  N         4.4781612364       -0.3858348368       35.7006414023
  O         4.7359147077       -2.2762264224       34.4963150238
  H         2.7082665321        3.1864049370       17.0773764883
  H         2.8632758795        2.6187620867       18.7293521627
  C         3.0778312862        1.1427155168       17.2359574660
  H        13.9695002273        2.8437770198       23.3237873761
  H        15.2260045063        1.6403148225       22.9094894973
  C        15.9099927736        3.6886250290       22.8237473585
  C        11.0091576608        8.8085758125       13.3506088716
  S         4.1304121064        2.0161893340       36.9649409327
  C         4.3358445956       -1.1884758185       36.9673836789
  H         2.3605361881        1.1801620993       16.4780394924
  H         3.9570952586        0.9105599178       16.6958478599
  C         2.6334670369        0.1461015113       18.3157749387
  H        16.4195143886        3.7219521684       23.8164528682
  H        15.4534481844        4.6898223009       22.7721928807
  C        17.0914595755        3.5169866328       21.8190177128
  H        10.6794936250        9.7959983562       13.5870787057
  C        11.5745098422        8.5570000151       12.1333081144
  H         3.5831000687       -0.7674204480       37.6120869636
  H         3.9400330044       -2.1431053881       36.8412166141
  C         5.6874543931       -1.1551892172       37.7288302208
  H         1.8225447258        0.5630227377       18.8826250623
  H         3.5045181608        0.0902092645       19.0296800200
  C         2.2582101281       -1.1547866020       17.6909624564
  H        16.8460186649        3.3573916632       20.8283553237
  H        17.5333297349        4.5059789534       21.7732324116
  C        18.0858339720        2.4954016181       22.3818128110
  S        12.2895313697        7.0965368271       11.5697521529
  C        11.6235295179        9.6844764213       11.2217843998
  H         5.3902702046       -0.8054316511       38.7445886004
  H         6.1767364597       -2.0911390593       37.7606948520
  H         6.3947572781       -0.4220705098       37.3237856949
  H         1.3256693172       -1.0300410678       17.1570678842
  H         2.0920672293       -1.8892259199       18.4746536442
  H         3.1275294046       -1.3919798668       17.0897115778
  H        19.1338442187        2.8737043625       22.1966475093
  H        18.0786695311        1.5454380919       21.8851726350
  H        18.2024643888        2.3070602682       23.4929444271
  C        12.7043044850        7.9627313739       10.1246954020
  N        12.2914967820        9.2476161547       10.0984982470
  O        11.2157767067       10.8391690397       11.5154854030
  S        13.5687673959        7.2686608350        8.7197564764
  C        12.4704858460       10.0885102277        8.8786900371
  H        12.1571943032       11.1140153530        9.2039546090
  H        13.5311231114       10.0913969398        8.6080080845
  C        11.4550566444        9.6755247063        7.8031627223
  H        10.4935030476        9.5220832094        8.3521924167
  H        11.3798049226       10.4807312921        7.0657214994
  H        11.7261151197        8.7212543593        7.3609595428
  H         3.9605957975        2.0387979938       12.0697215857
  C         3.6828582785        3.0615113539       12.2492423706
  H         4.5901567931        3.5642588644       12.5972021482
  C         3.0895467916        3.7284208932       10.9738678083
  C         2.6756504266        3.0987612502       13.4057501215
  C         4.2583241181        3.8000796692       10.0151846243
  H         2.7325753232        4.7394227626       11.1814484163
  H         2.3436411830        3.0747205597       10.5955588169
  H         2.4516633403        2.0672279853       13.6440765101
  H         1.7512355477        3.6678654113       13.1684035812
  H         3.1164590592        3.5794343888       14.2342733810
  C         4.7634538759        2.4851968805        9.4488977508
  H         4.1077636315        4.5012292776        9.1869489565
  H         5.0354634718        4.1868433391       10.6642165041
  C         5.3334969698        2.6854804112        8.0987244550
  H         3.8823153166        1.8491084245        9.3618788329
  H         5.4741741608        2.1137104169       10.1759155168
  C         6.7228186873        3.4923730399        8.1142938667
  H         4.6256349753        3.0943109720        7.3862867888
  H         5.5673202534        1.6932563147        7.8085351642
  C         8.0385944050        2.6889563088        8.4808389407
  H         6.7639118386        4.0836797989        7.1764288939
  H         6.5367134102        4.2936049020        8.8603092126
  C         9.3420999308        3.5103268501        8.8481558308
  H         8.4630985471        2.0374442657        7.7011387131
  H         7.8876964319        2.0340826684        9.3609848392
  C         8.9572643301        4.8401535345        9.5314767531
  C         9.7923535718        4.1675916791        7.6111597502
  C        10.4382954961        2.6823783810        9.5495493516
  C         9.2126381159        5.9751867720        8.7439797299
  C         8.3427967093        5.1342357639       10.7720302983
  C         9.7419787759        5.5492080061        7.5422439904
  C        10.2136625290        3.5554347505        6.4252167200
  H        10.0706447808        2.1265467374       10.4248625975
  H        10.9115236048        1.8882445306        8.9055148488
  C        11.6488939593        3.5289190864       10.0535231873
  S         8.8121343245        7.4775543464        9.4984838166
  C         8.2875840146        6.5354056544       10.9252016213
  H         8.2035459981        4.3364626650       11.4874226880
  C        10.1255294107        6.1826470394        6.4009057971
  H        10.3516290185        2.4901063239        6.5040480529
  C        10.5485890294        4.1919935590        5.2576172523
  H        11.2082050728        4.4249483968       10.3865461392
  H        12.2764844030        3.6035807142        9.1793919425
  C        12.5125125136        2.6918328268       11.0563622124
  C         7.8609659031        7.1513872158       12.2349813888
  C        10.5037295079        5.5332147314        5.1853667128
  H        10.0899344528        7.2853164571        6.4577497349
  C        10.9381490975        3.7788635563        4.0085120199
  H        13.5311726275        3.0545867594       10.9505581086
  H        12.6793943300        1.6359500607       10.8525697627
  C        12.1596486370        2.9306539385       12.5136137696
  C         7.8318182068        8.5023557091       12.5389517276
  C         7.3357466050        6.2409097069       13.3593693698
  C        11.0846963638        6.2161593623        3.9630211941
  C        11.3181056900        4.8886901092        3.2653504723
  S        11.3189881548        2.2327906641        3.3524303928
  H        11.6176302981        3.8342886074       12.6074447295
  H        11.6043465537        2.1095743144       12.8129961938
  C        13.2680567293        3.0889092487       13.4597267638
  N         8.1006534269        9.5102777582       11.6583921308
  C         7.5886276889        9.0099451788       13.8019791649
  C         6.9932841741        6.7926319979       14.6044777984
  H         7.1512089372        5.1684301873       13.2154419939
  C        12.3866406912        6.9835069370        4.2914401222
  C        10.0282471052        7.0277482911        3.2501246702
  C        11.8589349501        4.4663743033        1.9971966359
  C        11.8661881802        3.1094081537        1.9038842842
  H        13.0470725520        3.9026626883       14.1313469367
  H        14.1642376826        3.3697127435       12.9121567300
  C        13.4720491369        1.8573809711       14.3361337084
  S         7.9455819507       10.9160718313       12.4086657958
  N         7.6829703488       10.4203591130       13.9044585362
  C         7.1946429288        8.2202312898       14.8840055372
  H         6.5919067673        6.1770323647       15.3790942492
  H        12.1547683196        7.8193857491        4.9385708442
  H        12.7168014494        7.4214240212        3.3359078306
  C        13.5594581312        6.1457458843        4.8996785066
  H         9.8124580124        8.0062437631        3.7036652458
  H        10.4762251337        7.4147544220        2.3131387718
  C         8.8087635559        6.2018081381        2.9552916879
  H        12.2615336229        5.1406767825        1.2767209597
  C        12.2549353016        2.3545120541        0.6471111741
  H        13.4460380992        1.0026697288       13.7035054389
  H        14.5646219277        1.8966721131       14.6228035957
  C        12.6504067594        1.6706970721       15.5699957098
  C         7.0417353030        8.7960812894       16.1742276785
  H        13.2337720372        5.7717662180        5.8634487190
  H        13.8376819295        5.3374059575        4.2817093092
  C        14.8483178804        6.8718840513        5.2786632802
  H         8.2100917003        5.9091876031        3.8481986407
  H         9.0516736853        5.2473463325        2.4239237843
  C         7.9445983262        6.9467382033        1.9635374125
  C        12.2894427029        0.9734989654        0.5224642686
  C        12.3611386366        3.1773701652       -0.5539640193
  H        12.5372102279        0.5698066892       15.7472719145
  H        11.6705029517        2.0575894889       15.4443705480
  C        13.3265536748        2.4035365592       16.7274293722
  H         7.1015879479        9.8447730565       16.1102891693
  C         6.8291318665        8.3166204447       17.4136701916
  H        14.7291085658        7.6517400734        6.0237041440
  H        15.0426154976        7.4130370648        4.3884421640
  C        15.9633296062        6.0177756572        5.7004181728
  H         7.6791881069        7.9219594497        2.4144194224
  H         8.6054601396        7.1094918944        1.1315669876
  C         6.6277590529        6.1959381903        1.5414662095
  N        12.0919576561       -0.0564343660        1.5311650499
  C        12.5753233171        0.3522956223       -0.7013513345
  C        12.5578360161        2.5595365426       -1.7630100808
  H        12.2898376502        4.2477364162       -0.4472331813
  H        14.3966233621        2.6448260096       16.5988639755
  H        13.1649533445        1.7865095979       17.6103380339
  H        12.9303933620        3.3747749598       16.8875613550
  S         6.8104380830        6.7010938240       17.9088911327
  C         6.7275034296        9.2788492665       18.5127524668
  H        15.6870143943        5.7782028544        6.7661146762
  H        15.9036341274        5.0832390763        5.1405899820
  C        17.4406437156        6.5045697280        5.6593902746
  H         6.2197725373        5.5928932850        2.3844635255
  H         6.9065340598        5.3746068129        0.8461231422
  C         5.4681680714        7.0453948366        1.0657374924
  S        12.4337749744       -1.4676053758        0.8517360096
  N        12.6636020083       -0.9818532763       -0.7093847051
  C        12.6627060325        1.0629970851       -1.9327810151
  H        12.6170166037        3.1362731468       -2.7034723564
  C         6.5588717196        7.2542705421       19.5398295030
  N         6.5058268364        8.6061980890       19.6532262498
  O         6.8179605404       10.4961783552       18.3706213636
  H        17.8911145548        6.0548816943        4.8056296072
  H        17.5599837295        7.5844873003        5.5121332025
  C        18.1839512045        5.9085375755        6.8817772415
  H         5.7068905509        7.4992543737        0.1007343221
  H         4.7215066751        6.3827025129        0.7129050354
  C         4.7966724141        7.9385617351        2.1242514875
  C        12.8361607602        0.2844912148       -3.1129126727
  S         5.8862600367        6.2893159582       20.8005236358
  C         6.5310048690        9.3306699044       20.9526239680
  H        17.5674569126        6.0092546028        7.6749135597
  H        18.3757993427        4.8139156583        6.8756410923
  C        19.4877510190        6.6701513631        7.1225689818
  H         5.5233872585        8.1210648568        2.8873462936
  H         4.1022235259        7.2866911469        2.6642344430
  C         4.0475982304        9.1940576016        1.6155539750
  H        12.5039019251       -0.7570155379       -3.0681645957
  C        13.3043891838        0.6564738571       -4.3398010333
  H         5.9777270252        8.7254643358       21.6529307867
  H         6.0970236710       10.3191056326       20.8981478371
  C         7.9830885858        9.4679755791       21.3721137810
  H        19.9249305949        6.2235539618        8.0256047836
  H        19.2953727744        7.7125323322        7.3564801279
  C        20.5278263965        6.3853200332        6.0553669950
  H         3.4865805250        8.9889097601        0.7036237908
  H         3.2575298860        9.4360907855        2.3262844308
  C         4.9497207442       10.3951582984        1.4572821843
  S        13.8959132939        2.1902788094       -4.7302517170
  C        13.5359590134       -0.4597052555       -5.3012277114
  H         8.6892070335        9.2230876710       20.5642798378
  H         8.2939745788        8.7977832694       22.2025427479
  H         8.3264892590       10.4627391489       21.6370616484
  H        20.7580545657        5.2755708910        5.9795302561
  H        20.2080382955        6.8409911014        5.1147665207
  H        21.4777220064        6.9054548708        6.1910179749
  H         5.9774566960       10.1252908860        1.6787460795
  H         4.9679898058       10.6522814520        0.3885049103
  H         4.6984917474       11.2622917987        2.0721164864
  C        14.2028931327        1.4037089856       -6.2601207971
  N        14.1239814095        0.0555382379       -6.3420493421
  O        13.3614655999       -1.6495182653       -5.0215573649
  S        14.9115198010        2.2658027350       -7.6551051948
  C        14.1953586839       -0.6040512702       -7.5758556544
  H        14.3054398321       -1.5837837274       -7.2903916767
  H        15.1653935028       -0.4321206015       -8.0477937169
  C        12.8628502964       -0.5512675277       -8.3650933597
  H        12.8630922765       -0.9995526523       -9.3850738443
  H        12.5146589197        0.4569540814       -8.5402021688
  H        12.1420755280       -1.1016820746       -7.7845343510
