352
 i =     3600, time =     1800.000, E =       192.9306004247
  H        11.4489910925        7.4652046291       31.9671763429
  C        11.3112472630        6.3992583804       31.8683843871
  H        12.3956638916        6.0589273709       31.7208088023
  C        10.5600805893        6.1598711112       30.5923752473
  C        10.8052373444        5.8281089602       33.2290319320
  C        10.9629414256        4.9444325064       29.6771461757
  H         9.5721886589        6.1322503546       30.8348238069
  H        10.5359072716        7.0233333158       30.0126587700
  H         9.7067194985        5.6371594575       33.1244473784
  H        11.3625099419        4.9475555961       33.3170828096
  H        10.9947348885        6.6949884744       33.9251933578
  C         9.9505846835        4.7015429271       28.5780257753
  H        11.0996418064        4.1546446352       30.2500195721
  H        11.9978873107        5.0584329441       29.3192222662
  C        10.4352073874        5.1042835031       27.1600942763
  H         9.4795789169        3.6955581315       28.4836527203
  H         9.2166379911        5.2700210428       28.7134388071
  C         9.5687724596        4.5415795575       26.0574768153
  H        11.4221231632        4.6500255062       27.0144816909
  H        10.5780927395        6.1955879364       27.0539792833
  C         8.3448213601        5.4001982221       25.8392308295
  H        10.1129947136        4.2501903603       25.1506207151
  H         9.2372267683        3.6396416830       26.3807294796
  C         7.1836604797        4.6485874746       25.2589784961
  H         7.9718341104        5.8817834399       26.7707077990
  H         8.6511569573        6.2253347728       25.1715301008
  C         6.8084207156        3.2692211042       25.9577126704
  C         7.5924253536        3.9525722726       24.0222359114
  C         5.8503667799        5.5623610091       24.9792974606
  C         7.0599056771        2.1856530638       25.1229521695
  C         6.1903605163        3.0635257772       27.1954712660
  C         7.5690655784        2.5693744752       23.8704355413
  C         7.9990905727        4.5630766295       22.8025551531
  H         5.9536160342        6.4396818410       24.4492379668
  H         5.6739915966        6.0441687922       25.9470667517
  C         4.5579094283        4.9497768814       24.4938811960
  S         6.6658231108        0.7565074123       26.0010115274
  C         6.1490975503        1.6452129833       27.3289266624
  H         6.1552251448        3.8687470151       27.7506489919
  C         8.0377079896        1.9941052110       22.7648468324
  H         7.8533777438        5.6027784252       22.9628745209
  C         8.3218601131        3.9339684223       21.6318594111
  H         4.6700514029        4.4510056562       23.4650959752
  H         4.3433014284        4.1404862435       25.1425128961
  C         3.3253223032        5.8081848090       24.3942363758
  C         5.7046660742        0.9954950210       28.6304887349
  C         8.3024012433        2.6061400541       21.5649010722
  H         8.0540256721        0.9946628405       22.8856502999
  C         8.8509023453        4.3873310767       20.4119062410
  H         2.4461085383        5.4642417396       24.0117603984
  H         3.3743823361        6.7467283209       23.8627346628
  C         2.7376743012        6.1287748964       25.8160408215
  C         5.7429741375       -0.3966472771       28.9806088513
  C         5.3566588120        1.9524869617       29.7605078277
  C         8.7548502882        1.9768259773       20.3102637395
  C         9.1897138819        3.3177054368       19.6243872845
  S         9.0746178387        5.9292506618       19.7433855034
  H         2.1194111272        7.0464953379       25.5883863096
  H         3.6362441354        6.3959212679       26.4982789638
  C         1.8238361633        5.0173398213       26.5081447108
  N         5.9302967504       -1.5029900123       28.0656445032
  C         5.5304715903       -0.8654145594       30.2812458741
  C         5.1472615455        1.3831564322       31.0066611661
  H         5.3392045548        3.0087453417       29.6378843823
  C         7.6637229448        1.1871498144       19.5760836023
  C        10.1123110584        1.2534381268       20.3797102129
  C         9.5975208634        3.7460579508       18.3726044770
  C         9.6102738539        5.1391727640       18.3377049919
  H         1.0771103103        4.8094125502       25.6896873623
  H         2.2293916148        4.0481600760       26.7678718461
  C         1.2331872490        5.5653421347       27.7766819628
  S         5.8786549088       -2.8781621144       28.9227311876
  N         5.6458689381       -2.2422958856       30.4334217767
  C         5.3081137526        0.0299756818       31.4352120801
  H         4.9805922031        2.0619320452       31.7867381168
  H         7.5254760264        0.3358523692       20.1589649849
  H         8.0741076791        0.8923089998       18.6119612514
  C         6.3447561360        1.8392384089       19.3703718974
  H        10.5015589272        1.2241040964       19.3571750173
  H         9.9470460121        0.2245774648       20.7419005127
  C        11.2571832042        1.9244631927       21.1603717127
  H         9.9183277469        3.1050408036       17.6511961806
  C         9.8988488328        5.9166008912       17.0735552193
  H         0.3430835971        4.9279112938       27.9302187949
  H         0.7523664113        6.5714437230       27.7741317953
  C         2.1621459005        5.4247724619       28.8406000449
  C         5.0845228945       -0.5354636322       32.7533630021
  H         6.5479959948        2.8404246455       18.9701838535
  H         5.8599087317        1.9997764840       20.3440702843
  C         5.5306650554        0.9304494919       18.4292852370
  H        10.9776819320        1.9963291394       22.1721388754
  H        11.4420064150        2.9158793321       20.7447016664
  C        12.6618886264        1.1925759335       21.0428154486
  C         9.8106546729        7.3255317793       16.9645832292
  C        10.2519337380        5.1653920909       15.8331483974
  H         2.6768180839        4.4462364081       28.7898301508
  H         3.0742101129        6.0405494243       28.8171840183
  C         1.7081846012        5.4078230294       30.1932455310
  H         5.1502479571       -1.7024044038       32.7893977777
  C         4.7886344144        0.0795728321       33.9454957943
  H         5.3265916755       -0.0050066914       18.9670143618
  H         6.0011043437        0.5511136021       17.5797894640
  C         4.2688508922        1.7403505133       17.9391285279
  H        12.7192341049        0.3073106192       21.6726195328
  H        12.8283036249        1.0283372087       19.9608953824
  C        13.8279243618        2.1263694351       21.4881878511
  N         9.5439063831        8.1794654586       17.9639520615
  C        10.0213523978        8.0144590921       15.7579922321
  C        10.4766265555        5.8786273558       14.6901153504
  H        10.3203751620        4.0837604247       15.8064044106
  H         0.6747265922        4.9405713584       30.3025308798
  H         2.3914306241        4.8999551452       30.9451467974
  H         1.5005285381        6.4533529989       30.5606134584
  S         4.5238085665        1.6985602971       34.4379675121
  C         4.6263151412       -0.9476974941       34.9871665834
  H         4.1922585389        2.6020544722       18.5444261524
  H         4.4218115711        1.9430842928       16.8822558950
  C         3.0792391270        0.8472801000       18.1569054756
  H        13.3755652908        2.6118150575       22.3718586966
  H        14.2443627777        2.8494408262       20.7702607309
  C        14.8983424119        1.3382443836       22.1815918646
  S         9.5975545386        9.6890214487       17.3670178245
  N         9.9077564799        9.4464986038       15.8116126758
  C        10.4478645124        7.3771244769       14.6198112035
  H        10.6920942193        5.3606162384       13.8916563391
  C         4.1913682388        1.0308511374       35.9653679455
  N         4.2728980441       -0.2718186881       36.1057652357
  O         4.9190396903       -2.1568627152       34.9109949436
  H         2.1319064830        1.4146718210       18.0047148670
  H         3.0895587399        0.6882327258       19.1826922087
  C         3.0754554717       -0.4546509844       17.4253043369
  H        14.4570299955        0.5826106052       22.7634053106
  H        15.4577341764        0.7506544765       21.4568600951
  C        15.6670138521        2.1491993290       23.1976950621
  C        10.7631169931        8.1332021700       13.4583418447
  S         3.8866324228        2.0645720852       37.3461690290
  C         4.1040687390       -0.9939109989       37.3850202033
  H         2.4115176213       -0.2748130826       16.6162583685
  H         4.0283869066       -0.8351841279       17.0791772210
  C         2.5303162907       -1.5862211465       18.2227105894
  H        14.8861104818        2.2880062323       24.0130113342
  H        15.8668614648        3.1831187821       22.7432644430
  C        17.0300318015        1.5007566651       23.7569949444
  H        10.4595640959        9.1399476183       13.4598227498
  C        11.3218985282        7.9267164349       12.1854264162
  H         3.3426195560       -0.7079874264       38.0324758494
  H         3.6466612301       -1.8829770527       37.0099181932
  C         5.4225006542       -1.2640090177       38.0987870044
  H         1.5823656783       -1.2638929092       18.8220023552
  H         3.2149991321       -1.9775218320       18.9834859258
  C         2.1225706733       -2.6446621956       17.2775068218
  H        17.4180186503        1.9639999662       24.6573334036
  H        16.8738642904        0.4677290135       23.9432400762
  C        18.2308781321        1.5595913932       22.6854732635
  S        11.9531250761        6.3467429266       11.6669794001
  C        11.3043634204        9.0691462734       11.1819274049
  H         5.7342448986       -0.2729976240       38.5535587467
  H         5.2756924259       -1.9280546255       38.9659443349
  H         6.2110135273       -1.5471411560       37.5167541730
  H         2.1455272738       -3.5867297705       17.7976383131
  H         2.9213380519       -2.8147105972       16.5585173155
  H         1.1256239254       -2.4261215152       16.8356613820
  H        18.5479253592        2.5303063432       22.2513267222
  H        17.5388953112        1.2716984240       21.9425832510
  H        18.9758323239        0.9219323243       22.6424484839
  C        12.2376828896        7.1677238164       10.1147613248
  N        11.9571786046        8.5344746355       10.1557769022
  O        10.8353918595       10.2192839121       11.3471578081
  S        12.9981783695        6.5064501248        8.7252071703
  C        12.1068702401        9.3779425747        8.9285284848
  H        12.3696194974       10.4797232567        9.2335423999
  H        12.9794579440        9.1475433552        8.3322371745
  C        10.8989466409        9.2180362474        8.0663659115
  H        10.0439937470        9.1427368687        8.7541227196
  H        10.8777657991        9.9337237205        7.2487300972
  H        10.8002216034        8.2649414233        7.6787448475
  H         4.2978053380        1.1654896176       12.1275026754
  C         3.8308331889        2.1776524723       12.2928448819
  H         4.6186035554        3.0397147927       12.4433104547
  C         2.8879918185        2.3781675728       11.0833970108
  C         3.0151455920        2.1434631820       13.6076376732
  C         3.7071669540        2.6131829552        9.7774543919
  H         2.2722017181        3.1442626566       11.3596399768
  H         2.2857464810        1.5694755666       11.1404880787
  H         2.3681666733        1.2058760614       13.6737069595
  H         2.2013919212        2.9352505367       13.5894205178
  H         3.7186419067        2.2005244488       14.4616603560
  C         4.6658838881        1.5118578798        9.4340318699
  H         3.2023619530        2.9905063998        8.9640330517
  H         4.0950509706        3.5985770933        9.9085124075
  C         5.4144833639        1.8468319009        8.0726030617
  H         4.1619644549        0.5404132572        9.3623668195
  H         5.5356713868        1.3941366209       10.1453781395
  C         6.6053758464        2.8128072689        8.4597307336
  H         4.7146704540        2.4613603503        7.4190466648
  H         5.6377476637        0.8928218293        7.5042384354
  C         7.8270948616        1.9938791424        8.7879167963
  H         6.7058857184        3.2549015703        7.3930400196
  H         6.3562344361        3.4713306964        9.1655206384
  C         9.1639618209        2.8879396134        8.9200909226
  H         8.0238172778        1.4043715899        7.9244114613
  H         7.7081967934        1.3495684642        9.6243194139
  C         8.7738392706        4.1778295855        9.6892454344
  C         9.5316139552        3.6286540737        7.6692620525
  C        10.4194364563        2.1109274097        9.5012365687
  C         8.8969673162        5.3035982585        8.8427397908
  C         8.1706518431        4.4825230402       10.8814863794
  C         9.3798510682        4.9841371352        7.6006176199
  C        10.0719698067        3.0543708172        6.5160264292
  H         9.9791389841        1.4998958494       10.3246548639
  H        10.8133494029        1.4456035354        8.7631283811
  C        11.6441576512        3.0511201196        9.9778794859
  S         8.5726418579        6.8160992056        9.6677523755
  C         8.1380731011        5.9063958889       11.0841994878
  H         7.8835638017        3.6667811938       11.5471737994
  C         9.8124753257        5.6399863932        6.4250730803
  H        10.0413537493        2.0170928722        6.4872014424
  C        10.3560647017        3.6993558387        5.3662683102
  H        11.2979536322        3.9301097423       10.3776004250
  H        11.9990189355        3.5759154758        8.9945104386
  C        12.5517814911        2.2444517863       10.8670781989
  C         7.6200091504        6.5107761333       12.3397299267
  C        10.2451989136        5.0577020824        5.2733910603
  H         9.7754896069        6.7304655784        6.5312961025
  C        10.7690943082        3.2684544251        4.1553090473
  H        13.5413477198        2.7846814633       10.9139330862
  H        12.9642600924        1.3126516545       10.3456055808
  C        12.0617469900        1.9643661197       12.2415856545
  C         7.6115218812        7.9130992314       12.6264586658
  C         7.1569826901        5.5837129849       13.4131760498
  C        10.5885577679        5.6880138056        4.0440848036
  C        10.9126068991        4.3473531016        3.3778510764
  S        10.9139597450        1.7530437812        3.4268364948
  H        11.5844722152        2.8085051490       12.5906057981
  H        11.1309489955        1.3117733503       12.2470830617
  C        13.1658365618        1.9095740404       13.2585539963
  N         8.0636925859        8.9159905181       11.8133232288
  C         7.1992032906        8.3439525351       13.8597793308
  C         6.6970428701        6.0653589916       14.5931516111
  H         7.3628591078        4.5386600828       13.4754215369
  C        11.8338574097        6.5563098658        4.2542900082
  C         9.5262630638        6.4537749202        3.4046468684
  C        11.3182366252        3.8768759217        2.0882736298
  C        11.4308096743        2.4965371233        1.9106685083
  H        13.6179495466        2.9067046696       13.6017143865
  H        13.9616103957        1.1854278533       12.9781963905
  C        12.6750939062        1.4748291927       14.6544272420
  S         7.9491484216       10.2806318226       12.5354275019
  N         7.4313816096        9.7292641649       13.9556990077
  C         6.7786070992        7.5328399833       14.9256713196
  H         6.4898777382        5.3026694514       15.2141079503
  H        11.5712400027        7.3622068895        5.0704219320
  H        11.9969382392        7.0932375009        3.3359870150
  C        13.1221274675        5.7969561123        4.4764599735
  H         9.0515822261        7.1876098728        4.0237568915
  H         9.9895933992        7.1128342982        2.6100886576
  C         8.3280769549        5.6471043460        2.8262180817
  H        11.5489362126        4.6020837654        1.3469655318
  C        11.7249843935        1.7465932735        0.6434989357
  H        11.7342780151        2.0006381971       14.8732027679
  H        12.5737283651        0.3734371937       14.6033362959
  C        13.6881475760        1.7439141861       15.7469914268
  C         6.5582879550        8.1612314427       16.1549133976
  H        13.0391331386        5.1215655989        5.2668031621
  H        13.6777987794        5.2733570709        3.6361092493
  C        14.2448719627        6.7088178130        4.9023775974
  H         7.8107807295        5.3085488232        3.7364009045
  H         8.6192206660        4.8672691019        2.1864960415
  C         7.3358339300        6.5280016161        2.1200847229
  C        11.7516436689        0.4150845948        0.4728103223
  C        11.9404927396        2.5560082895       -0.5995057901
  H        14.4234977009        2.5278016159       15.4453244559
  H        14.2230889131        0.8344689904       15.9708554347
  C        13.1443732374        2.3395013405       17.0109999593
  H         6.6310076818        9.2885042954       16.2717929367
  C         6.2536958059        7.6208677489       17.3742149120
  H        13.9594573828        7.3910462728        5.7560650936
  H        14.3211475847        7.3598910968        4.0855437535
  C        15.6427481858        6.1241085096        5.1357859589
  H         6.7843104743        7.0020389764        2.9858098994
  H         7.8359363556        7.3372255885        1.3995582246
  C         6.1699983925        5.7572337948        1.3923460794
  N        11.5574873305       -0.5144261906        1.5034251739
  C        12.0526129957       -0.2295248983       -0.6673448557
  C        12.2528929494        1.9262634513       -1.7848087273
  H        11.7570818560        3.6019632938       -0.7769901292
  H        12.7123656672        1.5294753831       17.6075640705
  H        12.2701418037        3.0709039882       16.8572193887
  H        13.9987739315        2.8014936908       17.4598067209
  S         5.8754476519        5.9937714658       17.7354755426
  C         6.2517997788        8.5059086860       18.5392651472
  H        15.8559730635        5.2164658697        4.5812476343
  H        16.4820214368        6.7972137266        4.7536456843
  C        16.0098505212        5.7609918011        6.5683385667
  H         5.8906501231        4.9728308746        2.0385396802
  H         6.5510394711        5.4993865774        0.4460143454
  C         4.9107746090        6.6303951345        1.4143698453
  S        11.6796194026       -1.9951297323        0.9646960169
  N        12.1087805268       -1.5968973733       -0.5326675878
  C        12.4109848607        0.4565550861       -1.8513130640
  H        12.4348644540        2.5874843002       -2.6825388995
  C         5.8058645424        6.5490490556       19.4159539404
  N         6.0144347944        7.8617703965       19.6431998396
  O         6.4616865200        9.6523599834       18.4445396631
  H        15.8354504077        6.6480118340        7.0617451223
  H        15.1204395736        5.2095485432        6.8778723528
  C        17.3483370905        5.0083847528        6.6901222822
  H         4.3726027484        6.3086355633        0.4972832067
  H         4.3169878698        6.2181457254        2.2094054944
  C         5.0187981358        8.1595531541        1.5492093451
  C        12.7519916629       -0.3396949349       -2.9805508584
  S         5.2545216485        5.5172814284       20.8478768400
  C         5.9620709303        8.4922234931       20.9203026800
  H        17.0578593528        4.4060346556        7.5117819345
  H        17.5959291549        4.3580394810        5.8720402131
  C        18.5411506398        6.0409122810        6.9737675103
  H         5.9560276250        8.6870294650        1.5236124219
  H         4.6302082462        8.4258228143        2.5730811564
  C         3.9872637088        8.9001792736        0.7616795371
  H        12.4292587135       -1.4005383944       -2.9788483417
  C        13.3109514311        0.0163287170       -4.2108904619
  H         5.5078143442        7.9623799825       21.7187797846
  H         5.4134067013        9.4600949517       20.7918312928
  C         7.3624199959        8.6088073824       21.4760665860
  H        19.1975801582        5.5327799167        7.7638318515
  H        18.1735330624        6.9627824130        7.2519911355
  C        19.3394522241        6.3676962709        5.6792756650
  H         4.1429338086        8.7232989395       -0.3063420097
  H         3.0098725331        8.7087238735        1.1031771720
  C         4.1126344198       10.4401695456        0.8228876404
  S        14.0416168264        1.4661997662       -4.7272031277
  C        13.4359356364       -1.0838653109       -5.2766680355
  H         7.5610057554        9.5403767409       22.0545720616
  H         8.0426746546        8.4966117167       20.5565414680
  H         7.4633343674        7.8433776156       22.1523653911
  H        18.8328170787        7.2389169799        5.2567139054
  H        20.3543393421        6.7495284599        6.1433782899
  H        19.5955345244        5.5524243829        4.9404268369
  H         3.4517133667       10.9585094098        1.5902713824
  H         5.1571295043       10.8406885025        1.0018308024
  H         3.7839008798       10.7980693178       -0.1804524071
  C        14.2713107331        0.7843519211       -6.2618444917
  N        14.0799204920       -0.4913600226       -6.3415070350
  O        12.9758674009       -2.2192701663       -5.0468896256
  S        15.1184927233        1.5075203041       -7.5483147147
  C        14.3012446722       -1.4006704854       -7.5294574139
  H        14.1561269978       -2.3516475338       -7.1243754431
  H        15.3570919169       -1.2690559766       -7.8259142531
  C        13.2581612215       -0.9741624773       -8.5539278291
  H        12.2856497504       -1.2505468484       -8.2616096577
  H        13.4073554910       -1.4398462478       -9.5275825877
  H        13.2771917718       -0.0332315944       -8.9672266356
