352
 i =    21600, time =    10800.000, E =        96.2768096174
  H        10.1453312821        4.6330610884       31.5054969360
  C        10.2373765300        5.6679216974       31.8231805027
  H         9.2465937304        6.1158423358       31.9721120027
  C        10.9303445308        6.4922259214       30.7213226270
  C        11.0450967550        5.7517014592       33.1377108973
  C        11.7436676374        5.8048704674       29.7446771937
  H        10.3133864277        7.2139126373       30.1896748136
  H        11.6311036867        7.2176529496       31.2151033651
  H        12.0714133925        5.2763586908       33.0565792971
  H        11.1760576213        6.7608288220       33.3587521851
  H        10.5831045929        5.1888470746       33.9273274652
  C        10.9533257851        4.9521969780       28.7120162988
  H        12.5160359327        5.1221747602       30.2457528082
  H        12.3114933052        6.5346877548       29.1365850068
  C        10.8195562890        5.6496814982       27.3676420919
  H        11.4909866338        4.0265436641       28.4880164330
  H         9.9640513125        4.7869115710       29.1081908762
  C         9.8050236422        5.0404144999       26.4596529516
  H        11.7658102357        5.5339706884       26.8941783586
  H        10.6050389569        6.6875083435       27.5458673980
  C         8.4516396826        5.7465933415       26.5292674102
  H        10.1414762751        4.9178215321       25.4397801419
  H         9.6488423588        3.9579346270       26.7473335762
  C         7.4122997843        5.0891571639       25.6571776485
  H         8.1092726518        5.7143848691       27.6023239126
  H         8.5521472563        6.8372259093       26.3323136591
  C         7.0179792671        3.7448212876       26.3116695440
  C         7.8277958642        4.4407221403       24.4163193808
  C         6.1487873410        5.9949292247       25.6124656729
  C         7.3078069305        2.6632043995       25.5261256224
  C         6.6323216994        3.2946235285       27.6097529823
  C         7.8458858098        3.0621902395       24.2984460118
  C         8.3071463877        5.0702443078       23.2811619711
  H         6.3044843872        6.8279689652       24.9564390985
  H         5.8007930583        6.3726354962       26.5437731431
  C         4.9600414648        5.1500532254       25.0217731552
  S         6.9856311465        1.1107852234       26.2844211069
  C         6.6062602687        1.9309850458       27.7799141901
  H         6.5130061761        4.0578175776       28.3627336692
  C         8.1782535015        2.4060211801       23.1392752226
  H         8.2033439168        6.1387935394       23.3112276683
  C         8.7050564011        4.4072504418       22.1684976633
  H         5.3890903827        4.6717650944       24.1472561532
  H         4.7941716669        4.2865187191       25.7342513169
  C         3.6635755992        5.9881162520       24.7340437528
  C         6.0800126684        1.2406827989       29.0107741520
  C         8.6970065523        3.0380349529       22.0811519339
  H         8.0956188026        1.3456286930       23.1044811746
  C         9.2042158400        4.8300720086       20.9243239355
  H         2.9850181899        5.5812916032       24.0291245724
  H         3.8870147064        6.8336031800       24.1686810950
  C         2.8842132990        6.3149437347       26.0398425046
  C         6.0771916138       -0.1446980317       29.1553796561
  C         5.5681200694        2.0854651547       30.1304004915
  C         9.0839095303        2.4160964673       20.7841435328
  C         9.3427711714        3.7171104341       20.0622517679
  S         9.4574131062        6.3701506597       20.2334422973
  H         2.4174371277        7.2956821739       26.0139684760
  H         3.6317002509        6.3615912369       26.8714317648
  C         1.8120908738        5.3195954195       26.5499988328
  N         6.3564257028       -1.1569070609       28.1701744093
  C         5.8296331199       -0.7373353313       30.3720675251
  C         5.3715151784        1.4765373672       31.3043846954
  H         5.5078142542        3.1253491081       30.0919366146
  C         8.0494323183        1.5806387590       19.9750808799
  C        10.3879562316        1.5533158566       20.9202281586
  C         9.7684267387        4.2131768976       18.8269876045
  C         9.7944422002        5.5816567743       18.7107549828
  H         1.0036970708        5.1330047248       25.8159064248
  H         2.3088119922        4.3940268154       26.6676787256
  C         1.2000358736        5.7367636423       27.8310741952
  S         6.3312356170       -2.6702289935       28.8954768349
  N         5.9761056581       -2.1298091699       30.3377664053
  C         5.4792588188       -0.0341419476       31.5316478261
  H         5.1469410746        2.1139706243       32.1485427125
  H         7.9619392437        0.5306347348       20.3744516959
  H         8.5978843144        1.4896952012       19.0238565141
  C         6.7070267209        2.2201414805       19.8936549941
  H        10.6444755001        1.0648289343       19.9574646730
  H        10.3588727834        0.8149521085       21.7799736710
  C        11.6005144044        2.3670184907       21.3480137581
  H         9.8982427454        3.4767878789       18.0896275257
  C         9.9712068460        6.3658798186       17.4342078919
  H         0.4765428214        6.5507131841       27.5209322187
  H         1.9132787937        6.0936928186       28.5505839286
  C         0.4063560087        4.6832443664       28.6442878593
  C         5.2148940317       -0.7312575718       32.7746955612
  H         7.0001529015        2.9588966591       19.1346175247
  H         6.4668729812        2.7262983503       20.7999375024
  C         5.6449104998        1.2586406334       19.3493786944
  H        11.3944060725        2.9456595283       22.2724565830
  H        11.7095827262        3.1552567634       20.5866951150
  C        12.8112172582        1.4736582755       21.6543413642
  C         9.9981998723        7.7472862359       17.3034105768
  C        10.1385827727        5.6427327642       16.1243608390
  H        -0.5419576211        4.4921021587       28.1387581910
  H         1.0041031848        3.7776100838       28.6174509117
  C         0.2897810738        5.2040666901       30.1028301273
  H         5.4332995452       -1.7583427835       32.7196567054
  C         4.8036741479       -0.3141060502       34.0097674221
  H         5.2619954954        0.5784729392       20.1452133799
  H         6.0880408717        0.5699252410       18.6229316782
  C         4.4260831654        2.0053458369       18.7618889718
  H        12.6140002334        0.8645440943       22.5324620360
  H        12.9435197891        0.7886360964       20.8662860404
  C        14.1578268805        2.1479720735       21.9097916398
  N         9.7616049279        8.6058906968       18.3821280209
  C        10.3943977102        8.4081783218       16.1638928250
  C        10.3616234785        6.3163269383       14.9315589566
  H        10.1650767109        4.5757563429       16.1399431357
  H        -0.2219465102        6.1409612605       30.2217708294
  H        -0.3729396695        4.5276522690       30.5903562968
  H         1.2029955860        5.3546208599       30.6888359385
  S         4.3307277697        1.2223340591       34.5093584419
  C         4.7772585274       -1.3119660774       35.0898465315
  H         4.2251702198        2.9065994073       19.3947790283
  H         4.7572706063        2.4487007402       17.7781256459
  C         3.2379377030        1.0620855388       18.5974025503
  H        14.1404827455        2.9443653550       21.1651050536
  H        14.9991827574        1.4095059339       21.6667001458
  C        14.2642948960        2.7899749264       23.2470226521
  S         9.9456160015       10.1142112017       17.8585763814
  N        10.4468264020        9.8443757180       16.4177227274
  C        10.6568455444        7.8069475311       14.9052158357
  H        10.4484095430        5.6850100154       14.0952571258
  C         4.1530733655        0.6017499156       36.1368765639
  N         4.3979038023       -0.7118506646       36.2510260270
  O         5.1948430789       -2.4414810346       34.9409145824
  H         2.2423968012        1.5967909209       18.4278420482
  H         3.1556207082        0.6222623307       19.5874438021
  C         3.3135364503        0.0435426974       17.5227817790
  H        13.4900728019        3.5194983198       23.3682211966
  H        14.0811185453        2.0289300299       24.0581543002
  C        15.6061164815        3.4597697255       23.4274682246
  C        10.9508528092        8.5471323861       13.7372280927
  S         3.6108649489        1.4819621929       37.5261693199
  C         4.3437819141       -1.5072239762       37.5250568113
  H         2.5322817776        0.1947125532       16.7879266231
  H         4.2790810253       -0.0748530473       17.1171016581
  C         3.0229911579       -1.3842309959       18.0796358984
  H        15.5983360105        4.3109554731       24.1131103126
  H        15.9336645379        3.9946006400       22.5795537698
  C        16.6101389746        2.4886784781       23.9826145550
  H        10.6425267422        9.5849505778       13.8776860010
  C        11.3517652345        8.1029029197       12.5087342827
  H         3.4740478706       -1.1145281012       38.0197381480
  H         4.2144552747       -2.5318628956       37.2562553782
  C         5.5857451122       -1.2567710416       38.3907671979
  H         2.0231069425       -1.2993720958       18.3434116288
  H         3.6064473350       -1.6621980389       18.9890045724
  C         3.1475370195       -2.4416331966       16.9704435994
  H        17.0316249564        2.9123548321       24.8454530747
  H        16.1736483553        1.5733223097       24.3203651130
  C        17.7217444537        2.3050302447       22.9549614841
  S        11.8123569449        6.5597895137       11.9797391844
  C        11.4888936439        9.1306245516       11.5231676200
  H         5.3163742821       -0.5654769109       39.1713191081
  H         5.9349877319       -2.1955197408       38.8925111836
  H         6.4991606584       -0.8862071297       37.8575674205
  H         2.3686221814       -3.1446572229       16.9712212451
  H         4.1485855500       -2.8675180398       17.0844920674
  H         3.1266351761       -1.9974154484       15.9830654856
  H        18.5463594834        1.7512161032       23.4005257740
  H        18.2350321898        3.2565346809       22.6574850502
  H        17.4207248324        1.7584730574       22.0944139550
  C        11.9603649631        7.2574361333       10.3867455438
  N        11.7998744531        8.5567605312       10.3088316506
  O        11.3030671959       10.3312963282       11.7276307987
  S        12.7163636033        6.5783161178        8.9251275914
  C        12.1199300959        9.4043256740        9.2061475311
  H        12.4602582479       10.4200041938        9.4441192149
  H        12.8307761166        9.0146754571        8.4774872909
  C        10.8912174615        9.6324551376        8.4046294103
  H        10.7737258916        9.0155602593        7.5152133786
  H        10.0731785162        9.3621819167        9.0416681947
  H        10.9171480086       10.6790974874        8.0554940608
  H         4.0737542129        1.0783789634       12.8351024748
  C         3.9488529515        2.1512758484       12.9036181598
  H         4.9192324894        2.5677746249       12.8957895058
  C         3.0810984136        2.6459707085       11.6872891672
  C         3.5040945043        2.3517609265       14.2654085205
  C         3.8794674944        2.8262807161       10.4122367940
  H         2.7439390520        3.6402303105       11.9071270073
  H         2.2428440507        1.9388791284       11.5478736131
  H         3.0632474067        1.4703893302       14.6222062402
  H         2.9006625580        3.3090406811       14.2702665244
  H         4.4687207622        2.4205152145       14.7950123456
  C         4.4912484589        1.5535150713        9.8308026141
  H         3.1666613740        3.1960983577        9.7057805628
  H         4.5670813548        3.5933881917       10.5634144886
  C         5.3197342779        1.6624338338        8.4840762161
  H         3.6805181195        0.8666530666        9.5648178786
  H         5.0602584470        1.0905640690       10.6122834007
  C         6.5358518609        2.5033532638        8.6109232046
  H         4.6658729103        2.0455655004        7.6631309618
  H         5.5147294761        0.6508618827        8.0247524778
  C         7.8278221642        1.6667150449        8.9915206231
  H         6.6030802129        2.9614018534        7.6418680446
  H         6.3525664636        3.2856006089        9.3706825860
  C         9.1010676262        2.5403421337        9.2325145277
  H         8.0581098380        0.9289484861        8.2754463591
  H         7.6528419762        1.0804097231        9.8609957334
  C         8.6715227989        3.8187957464        9.9317315098
  C         9.5651156740        3.2086733886        8.0391820610
  C        10.1958282636        1.8178797623       10.0854055450
  C         9.0401644486        4.9042413868        9.2392644555
  C         8.0601858644        4.1403852130       11.1325391540
  C         9.5774604383        4.5661066595        7.9909006604
  C         9.9645204811        2.5576044914        6.8848168465
  H         9.8208231624        1.1855296141       10.8461695083
  H        10.5839400076        1.0959434004        9.4109921066
  C        11.2876150739        2.8295649424       10.5168562675
  S         8.6384207664        6.3735428588       10.0163735475
  C         8.0089005197        5.5125454503       11.3900426909
  H         7.6809498472        3.3546188694       11.7842107638
  C        10.0861033389        5.1718889330        6.8671239550
  H         9.7248671074        1.4979870896        6.7915019060
  C        10.4773076180        3.1941087378        5.7919557736
  H        10.8620655970        3.5331726062       11.1595190069
  H        11.6651856833        3.3120624559        9.6456776831
  C        12.4857832880        2.2328118408       11.2739544944
  C         7.5390941502        6.2317861681       12.6160114445
  C        10.5815964788        4.5355136677        5.7566626273
  H        10.1293466559        6.2582164599        6.8083717637
  C        10.9456139689        2.8438559330        4.5558213224
  H        13.2464954925        2.9803196928       11.1746231953
  H        12.7092048833        1.3133572181       10.7777619790
  C        12.1239076443        1.9868675058       12.7618876209
  C         7.6091227927        7.6467902916       12.9284725064
  C         7.0259503567        5.3736668865       13.7283136609
  C        10.9015967203        5.2878437762        4.4670510721
  C        11.1705569416        3.9544345448        3.7282938256
  S        11.1585681756        1.3718134286        3.7903067927
  H        11.9553948714        2.9914597173       13.3054487260
  H        11.2162520072        1.4144922681       12.7091859436
  C        13.2786748034        1.3407702105       13.4737260198
  N         7.9053511065        8.6296334443       11.9553295412
  C         7.4193042780        8.1627780457       14.1891112517
  C         6.8389278539        5.8813110423       14.9691266019
  H         6.9489897744        4.3238980424       13.5827063355
  C        12.2657516983        6.0437935977        4.5443011293
  C         9.8023829689        6.2420334267        3.9341228716
  C        11.6284780410        3.5577127977        2.4539057009
  C        11.5620849256        2.2098514933        2.3417491657
  H        14.0768707105        2.1129865821       13.5089042151
  H        13.6493001343        0.5379449530       12.8661605076
  C        12.9406194949        0.8118307100       14.8764680437
  S         8.1292719298       10.0055169072       12.7698621149
  N         7.5831006680        9.5865927523       14.1950046407
  C         7.0401734989        7.3425116029       15.2392459263
  H         6.4174775610        5.3146619180       15.7802995266
  H        12.1309305975        6.8825908152        5.2104192117
  H        12.4199205545        6.5074117273        3.5678124127
  C        13.5136390672        5.3255562547        4.9414081863
  H         9.5124389522        7.0769713752        4.5076547673
  H        10.1645297395        6.7330083494        3.0446491942
  C         8.5348424220        5.5422969039        3.4027099451
  H        11.8285423598        4.3056911370        1.7205019118
  C        11.8172161612        1.4398563644        1.1190198063
  H        12.0009019743        0.3195073321       14.7680300684
  H        13.7153219928        0.0713757696       15.0350652065
  C        13.0343638362        1.8337103274       15.9762561521
  C         6.8312178766        7.9658270777       16.5348749199
  H        13.3019381783        4.6787632873        5.8225978489
  H        13.8742792082        4.6964095014        4.1379614996
  C        14.5080857577        6.3694160130        5.3013834561
  H         8.0260832702        4.9124784173        4.1782527167
  H         8.7403962761        4.9806869472        2.5334660650
  C         7.5925604540        6.6059680673        2.9049392904
  C        11.8011917289        0.0164721769        0.9164827829
  C        12.1566985425        2.1617066569       -0.1202391282
  H        12.4420569706        2.7675613177       15.7443534085
  H        14.1230108774        2.1827449512       16.0183449788
  C        12.5043873772        1.2418523817       17.3025697747
  H         6.6763964686        9.0055293552       16.5504225288
  C         6.5379566767        7.5287104257       17.8084519107
  H        14.0923153104        6.7750826461        6.2041274617
  H        14.5428152148        7.1661164661        4.5700812240
  C        15.9073780190        5.8316248842        5.5125311860
  H         7.3555953310        7.2821196612        3.6944028446
  H         8.0979481959        7.2060838406        2.1279548667
  C         6.3357585135        5.9037324622        2.4953276392
  N        11.5811454777       -0.9198626595        1.9430241670
  C        12.1439610340       -0.6077602082       -0.2572321748
  C        12.4378928369        1.5817210175       -1.3128776381
  H        12.1394174429        3.2437761396       -0.1748134491
  H        11.5093083207        0.9625246578       17.1442420389
  H        12.3784660297        2.0454655594       18.0322588597
  H        12.9943613892        0.3750225695       17.6611081564
  S         6.3715225099        5.8696357538       18.3322453823
  C         6.4116594548        8.5427412631       18.9040325505
  H        16.2032329141        5.0786835274        4.7325506403
  H        16.6112123419        6.6527135660        5.3454040249
  C        16.0535382715        5.2058425860        6.9483377635
  H         5.9387541385        5.4300443217        3.4151567930
  H         6.4614092269        4.9908034207        1.9110562278
  C         5.3279287783        6.8306922228        1.8582217892
  S        11.7228080111       -2.4497161264        1.2772555827
  N        11.9666186427       -2.0015209010       -0.2524464198
  C        12.5427683495        0.0705779560       -1.4020095485
  H        12.7237474635        2.2755447829       -2.0550444226
  C         5.9805655404        6.5580840639       19.8599697463
  N         6.0456092216        7.9138480450       20.0044124415
  O         6.4216080290        9.7862519131       18.7566791240
  H        16.0485107908        5.9343379827        7.6740616147
  H        15.1905380628        4.6657288093        7.3155853505
  C        17.4418996792        4.4058240544        6.9887497592
  H         5.8436148760        7.5776737226        1.2620098623
  H         4.8203981623        6.2497519670        1.0579036984
  C         4.3336340572        7.3578197857        2.8522884843
  C        12.8819566096       -0.6774749101       -2.5847201870
  S         5.6818177646        5.5703347457       21.2896819548
  C         5.9512700819        8.6197140846       21.2198985305
  H        17.3771044773        3.7699049207        7.8765364256
  H        17.7360930721        3.6910629336        6.1762197689
  C        18.5570419230        5.4516321907        7.2647988267
  H         4.9388012909        7.7248208770        3.7333438474
  H         3.6816908606        6.5993300106        3.3353827691
  C         3.4775210714        8.5126651279        2.3203065749
  H        12.7291307316       -1.7467677375       -2.4545237565
  C        13.4484621725       -0.2276337077       -3.8082571275
  H         5.1374685077        8.1282046761       21.7884758602
  H         5.6747041300        9.6646365406       21.2067177448
  C         7.2473669446        8.6807269280       21.9775453506
  H        19.3414796526        5.0859664723        8.0109354525
  H        18.1844924439        6.3653813571        7.7477595901
  C        19.3255500787        5.7595556500        5.9359537331
  H         2.7374028070        8.1615642458        1.5953018962
  H         2.8689819427        8.8182139117        3.1491004465
  C         4.3914143660        9.6559364355        1.7721135921
  S        13.9470985064        1.4065088566       -4.1670493009
  C        13.4758241817       -1.1751802551       -4.9439578262
  H         7.3459393589        9.6099412666       22.4977127042
  H         8.1387976476        8.5220494782       21.4669249590
  H         7.1727511688        7.9760841795       22.8085270259
  H        20.3238068339        6.2773371935        6.0989584804
  H        19.4617150162        4.8151904818        5.2650007269
  H        18.7022335049        6.4479227501        5.3300699302
  H         5.2388343010        9.7604853930        2.4448745883
  H         4.7625151031        9.3860878716        0.8425311543
  H         3.9035428720       10.5917466110        1.6200003983
  C        14.3646745298        0.6998242263       -5.7767205789
  N        14.0158078719       -0.5870253953       -5.9490105971
  O        13.2865520140       -2.3635225164       -4.7858363139
  S        14.8100157823        1.6907973029       -7.1675477946
  C        14.1425091171       -1.2334219142       -7.2129790710
  H        14.3037676489       -2.2909113524       -6.9959326889
  H        15.0526072116       -0.8086317801       -7.6354283476
  C        12.8579301136       -1.1092352718       -8.0243493183
  H        12.4311558545       -0.1139365449       -7.8339892819
  H        12.1742006790       -1.8247683132       -7.7134122280
  H        12.9094479230       -1.1985303332       -9.1098066620
