352
 i =    48300, time =    24150.000, E =        98.1716079213
  H        10.1052627534        4.5614600670       32.3979693149
  C        10.3542865172        5.5685934928       32.7036267517
  H         9.8378060147        5.8075158223       33.6318912557
  C         9.7969322764        6.3678912103       31.5354600797
  C        11.9180127381        5.8273195148       32.9633345789
  C        10.3819930741        5.9604853910       30.1431453086
  H         8.7431729830        6.3266743306       31.3748647388
  H        10.0078621247        7.4211741731       31.7013824034
  H        12.4097309504        5.7170549682       31.9914475482
  H        12.1783496996        6.8417305046       33.2132225110
  H        12.5032303860        5.1588161712       33.6234465534
  C         9.5046866206        5.9810031730       28.9459022744
  H        10.8121454217        4.9499737969       30.2470920988
  H        11.2089158893        6.5580267504       29.9250835303
  C        10.3334307440        5.9348979543       27.7051350967
  H         8.8292055956        5.1427243062       28.9937415375
  H         8.8934826779        6.9113487122       28.8896644085
  C         9.5472066786        5.2153495139       26.5931900820
  H        11.1549444917        5.2844475545       28.0701667567
  H        10.8036746116        6.8668787341       27.3883244548
  C         8.3651310891        6.0833903042       26.1452856516
  H        10.1520177412        4.8713608249       25.7518379256
  H         9.3666303602        4.2375022436       27.0763947755
  C         7.2432955455        5.3828413545       25.2686645621
  H         7.8610527704        6.5399393248       26.9310148847
  H         8.8455892766        6.8658734997       25.4982507360
  C         6.9150960424        4.0393208595       25.9253282360
  C         7.6501854728        4.7597927527       24.0129269558
  C         5.9832144679        6.2451849185       25.1444551094
  C         7.1915519042        2.9725409806       25.1447180669
  C         6.3562911106        3.6150792657       27.1867134776
  C         7.6376365412        3.3787855518       23.8714083003
  C         8.0357772367        5.4098939180       22.8118286098
  H         6.1175338335        6.9712493004       24.3267824872
  H         5.9123363636        6.8176003984       26.0605909567
  C         4.7915674241        5.4247320813       24.6409373688
  S         6.7618614039        1.4117370516       25.7646690997
  C         6.3921002261        2.2618584231       27.2583388339
  H         6.0429306346        4.3416095369       27.9097048282
  C         8.0116731940        2.8211709725       22.7117000008
  H         8.1070243243        6.4900322820       22.8786182356
  C         8.4400391975        4.7953464017       21.6691741548
  H         5.0197093611        5.3086928695       23.5842613030
  H         4.7279640064        4.3920940955       25.0473186024
  C         3.4073155792        6.2004270877       24.6784131303
  C         6.0564778146        1.6418318583       28.5885660098
  C         8.3073210370        3.4166555371       21.5239585040
  H         7.9835391453        1.7302875000       22.6695384910
  C         8.9374546896        5.1745543824       20.4044057092
  H         2.6417721380        5.6698798233       24.1700383938
  H         3.4607159522        7.1804116161       24.1663112806
  C         2.8607319294        6.6095686162       26.1060928473
  C         6.0955764810        0.2441135663       28.8236451154
  C         5.4735800265        2.4088513550       29.7531393985
  C         8.6841760452        2.7338339861       20.2621935177
  C         9.0515608462        4.0340642294       19.5827323762
  S         9.2608316425        6.6932966870       19.7307619996
  H         2.1464829002        7.3740955192       26.0196516965
  H         3.6954433530        6.9817184703       26.6474483579
  C         2.2352533963        5.4233087862       26.8105222012
  N         6.4094177478       -0.7199636341       27.9006296528
  C         5.8938652940       -0.3363375236       30.1100102131
  C         5.2586227400        1.7691797231       30.9836495462
  H         5.4132181332        3.4361992491       29.6639679272
  C         7.5591475659        1.9442025327       19.5770842604
  C        10.0267019656        1.8909241418       20.3960877473
  C         9.4666841259        4.4302624843       18.3013523045
  C         9.5654503883        5.7927321697       18.2578157908
  H         1.4504100306        5.0193872883       26.2289863467
  H         2.8576165579        4.4377830101       26.8929579609
  C         1.5394844459        5.6759485267       28.1243760472
  S         6.3341124187       -2.2378232458       28.5863548405
  N         6.0632138727       -1.7583697537       30.1090053986
  C         5.4536845702        0.3234985316       31.2526755697
  H         4.9621902583        2.4207717126       31.8498110144
  H         7.1992312333        1.1601947877       20.1997357474
  H         7.9534358069        1.3474502432       18.7482446184
  C         6.3284748007        2.8444360137       19.2744968214
  H        10.4175725835        1.5182111528       19.4427043978
  H         9.8348347179        0.9388963984       20.9292064809
  C        11.1771508960        2.7192374385       21.0236243247
  H         9.7376173848        3.6905913645       17.6181738488
  C         9.9958221908        6.4887487269       17.0031543044
  H         0.5981081898        5.0880752674       28.1409898180
  H         1.2594659680        6.7516930096       28.1370916493
  C         2.5117953215        5.4229097877       29.2943785566
  C         5.2006405449       -0.4236563160       32.4832926150
  H         6.5276653066        3.8459913936       18.9380915424
  H         5.8544297545        2.8673545622       20.1998318324
  C         5.4722288043        2.2891295251       18.1116141542
  H        10.8957156359        3.3419836469       21.8580223880
  H        11.6866772995        3.3362462503       20.2360446004
  C        12.3663532613        1.8298383275       21.4964190128
  C        10.1253713299        7.9464315648       16.7603782699
  C        10.2839899735        5.6794996317       15.8155074894
  H         2.6955952692        4.3168860891       29.2492804529
  H         3.4494814154        5.9180779881       29.1604409488
  C         2.0184591928        5.6497275931       30.6784768931
  H         5.3101735055       -1.4668241032       32.3819751928
  C         4.9804593997        0.0532892623       33.7482783196
  H         5.6750693147        1.2552003960       18.1651434279
  H         5.7890874793        2.7779084817       17.2752798946
  C         4.0332358752        2.6603684399       18.4009717390
  H        12.0293668597        1.0820012858       22.2184133278
  H        12.6560668236        1.3068757117       20.5959889888
  C        13.4721771630        2.6545148586       22.1219404882
  N         9.9753234929        8.9247702952       17.7742208027
  C        10.4583409030        8.4842401977       15.5544161642
  C        10.6667917240        6.2459094914       14.5940645783
  H        10.2014466256        4.6520747461       15.7864113928
  H         1.1828593664        4.9580323674       30.8566146407
  H         2.7722441222        5.4460797027       31.3335273640
  H         1.8674669446        6.6964244138       30.6236489769
  S         4.8433421007        1.6912407601       34.1295637100
  C         4.8740574152       -0.9562889438       34.8042239049
  H         3.8424602721        3.4437679404       19.1642652267
  H         3.5461462843        3.1045369174       17.5280033642
  C         3.2688028569        1.3492855202       18.8555289808
  H        13.1509192136        2.9531979916       23.1548673104
  H        13.6162419997        3.5334140064       21.4776896958
  C        14.7443307420        1.9239432896       22.3628079224
  S         9.8273821795       10.3495486732       17.0257924562
  N        10.3369347717        9.8667175178       15.5286657764
  C        10.7248475483        7.7034451818       14.3565317455
  H        10.7064678565        5.5843945037       13.7725175608
  C         4.4097925606        1.0230983181       35.7277457776
  N         4.5175364966       -0.3064952037       35.9255063684
  O         4.9684835007       -2.1677231200       34.5837727483
  H         2.3403315941        1.4748374542       19.3286963753
  H         3.9417442703        0.8290085822       19.5498493568
  C         2.9965780153        0.3729035914       17.7114572187
  H        14.7810595712        1.6867416981       23.4653300879
  H        14.8894811393        0.9272090474       21.7422171887
  C        15.9909896344        2.8548807656       22.0458966568
  C        10.8977298603        8.4427407670       13.0647906352
  S         3.9578961340        1.9351580895       37.1639671854
  C         4.2954282855       -1.0113520767       37.1827551105
  H         2.5963671607        0.9766823450       16.8676662639
  H         3.9577498151       -0.0953506159       17.4468928786
  C         2.0201685138       -0.6930136292       18.0970937402
  H        15.6780710919        3.8223169013       22.4413753943
  H        15.9916963572        3.0061673153       20.9631520147
  C        17.4211967111        2.5092286996       22.4847470900
  H        10.9204540546        9.5638262101       13.1883495957
  C        11.3464399184        8.0246791280       11.8048289124
  H         3.4447111380       -0.4984265977       37.6501931877
  H         3.8539445594       -1.9731971069       36.9309618874
  C         5.5600902069       -1.2292157292       38.0353262044
  H         0.9860614542       -0.3327453814       18.1311061017
  H         2.1720393737       -0.9564343793       19.1375755483
  C         1.9385092557       -1.9654917630       17.1923903308
  H        17.8064970417        1.5111486530       22.1419006688
  H        18.1263620253        3.2993708468       22.2512846608
  C        17.4955746862        2.2785959615       23.9843402475
  S        11.9945151395        6.4723631717       11.4831451464
  C        11.4851718447        9.0621713989       10.8207512282
  H         6.4302730416       -0.9943922637       37.4143179469
  H         5.7471804473       -0.6055170594       38.9486008719
  H         5.5986666083       -2.3183010841       38.2244973496
  H         1.6366390002       -2.6705243871       17.9005136811
  H         2.8355382345       -2.2632033144       16.5995909822
  H         1.1509928410       -1.8963569177       16.5006577629
  H        17.3766729698        3.1390578156       24.5323546879
  H        18.5335087401        1.8634857379       24.0946392740
  H        16.7901230264        1.6493875774       24.4353432546
  C        12.3451532672        7.0928298367        9.9196765920
  N        12.0056633821        8.4089820368        9.7633543139
  O        11.1102132649       10.2127569154       10.8329833749
  S        13.1009109787        6.1581120885        8.6135795474
  C        12.1111713803        9.0122475169        8.4699076477
  H        12.6216380525        9.9291551688        8.5675892280
  H        12.7453387480        8.5963304591        7.6949416870
  C        10.7176863903        9.2064823252        7.9322308994
  H        10.5915736290       10.2765445329        7.7389153770
  H        10.5318791543        8.8097047722        6.9635601612
  H         9.9451148971        8.8266403420        8.5623754198
  H         4.1055141266        3.7625750144       12.6626889995
  C         3.0416693582        3.2938690162       12.5524477478
  H         2.3907926884        4.1899210020       12.2037978693
  C         2.9196525688        2.2240140203       11.5850693870
  C         2.5679132500        2.9266735504       13.9208061316
  C         3.5252371711        2.6356684153       10.2618258962
  H         1.8836195618        1.9468162846       11.4564061702
  H         3.4949673536        1.3394480179       11.9350073817
  H         2.6227841766        1.8611819255       14.1277563830
  H         1.5605225064        3.2967608397       13.9525834899
  H         3.0401499032        3.3651163256       14.7692394930
  C         4.5108426160        1.5122675842        9.8142373899
  H         2.6291010370        2.8841482162        9.5989416202
  H         3.9910421815        3.5858488209       10.3809695588
  C         5.1892418747        1.5951233425        8.4593107577
  H         4.1554308487        0.5023683228        9.7172740084
  H         5.3428649261        1.4014651693       10.5220212284
  C         6.4885116004        2.4812827353        8.4752341547
  H         4.5176268740        2.0503331310        7.7011913141
  H         5.4147770007        0.5374980878        8.1353245976
  C         7.7638953184        1.7711536167        9.0210072241
  H         6.7006770649        2.8293939366        7.4906371511
  H         6.2529769495        3.3745079857        9.1124066291
  C         8.9456756405        2.6927879817        9.1621605825
  H         8.0713189642        1.0512231382        8.2788764943
  H         7.5798171319        1.1918268137        9.9524274503
  C         8.4950905693        4.0613579133        9.7137021794
  C         9.4131459058        3.3535082806        7.8754780183
  C        10.0204882895        1.9611827835       10.0177042640
  C         8.8107932209        5.1267323165        8.8785023874
  C         7.9172015088        4.5095668755       10.9715449756
  C         9.3743348695        4.7191112490        7.7314959657
  C         9.9189228938        2.7201753608        6.7479095636
  H         9.4648526554        1.3879168963       10.7515989028
  H        10.5614475234        1.1726428078        9.3566421448
  C        11.1471201556        2.9182341049       10.5294671239
  S         8.4529789621        6.6779593745        9.5724824623
  C         8.0303049808        5.8796335723       11.0524727504
  H         7.5477672185        3.9425250181       11.7707632459
  C         9.7409352209        5.3322159543        6.5441076762
  H         9.9858030530        1.6504509933        6.7254134273
  C        10.2880364380        3.4073888692        5.6276033870
  H        10.7042643213        3.8312644011       10.8758087625
  H        11.7333439332        3.2329000679        9.6800467523
  C        12.0942132526        2.3069526461       11.5338934029
  C         7.6773872985        6.5663012340       12.3673955506
  C        10.2484133886        4.7667815716        5.4589123506
  H         9.5050597086        6.3729018862        6.3675539891
  C        10.7815989460        3.0077800662        4.4079833904
  H        13.0041473071        2.9441759481       11.5861577336
  H        12.3046030677        1.3008705035       11.1653755707
  C        11.5503593938        2.1453182629       12.9434400499
  C         7.6852334224        7.9658138910       12.6215125450
  C         7.3753015404        5.8013856164       13.5941479132
  C        10.7546827722        5.4786187841        4.1924829653
  C        11.0926706055        4.0292692121        3.5676545965
  S        10.9166789163        1.3849530404        3.7447672018
  H        10.8867735134        2.8789309826       13.3062516207
  H        10.9799178872        1.2827050397       12.9336159182
  C        12.7076403337        2.0898632360       13.9102258164
  N         7.8612677409        8.8527427867       11.5962500793
  C         7.4349816691        8.5974288282       13.8648898878
  C         7.0577976448        6.3614042262       14.8261728577
  H         7.0786217468        4.8020653627       13.4951687757
  C        11.9688429778        6.3846813795        4.5447605651
  C         9.6755207018        6.2123295955        3.3383541772
  C        11.5984972270        3.5196103870        2.3825922429
  C        11.5278572897        2.1104052170        2.2966380621
  H        13.3315664114        2.9631661482       13.7293699406
  H        13.3627215795        1.2802475882       13.7094216700
  C        12.3222124481        2.0645895032       15.3964906476
  S         7.8498525062       10.3233045194       12.2769339577
  N         7.4479153243        9.9619896414       13.7624991477
  C         7.1622248421        7.8505420563       15.0671043733
  H         6.7755350975        5.6537969059       15.5368877363
  H        11.7671441960        7.0048316702        5.4185937977
  H        12.1961389342        7.1306255383        3.7160620952
  C        13.1784746538        5.5592234626        4.7830223699
  H         9.4828936778        7.2216506752        3.6455648819
  H        10.0472698598        6.1998390083        2.2953199246
  C         8.3615397569        5.4059691834        3.0727731643
  H        12.0790190411        4.1759559450        1.6885159953
  C        11.7318291269        1.3153907919        1.0272099024
  H        11.8504233832        3.0713958373       15.6068333872
  H        11.6265848907        1.2842494524       15.5186393962
  C        13.4923195052        2.0038445125       16.3634442167
  C         6.8673504034        8.5189866076       16.3593664571
  H        12.9904260698        4.9805210706        5.6539482846
  H        13.4088567348        4.8902666784        3.9534484520
  C        14.4190061735        6.3988531588        4.9717819935
  H         8.1701743184        4.7476675011        3.9306981155
  H         8.4823940090        4.6469640036        2.2609875510
  C         7.3062112502        6.4052963391        2.6319403262
  C        11.8236573108       -0.1063989759        0.8214882561
  C        12.0581718508        2.1026553124       -0.2171662517
  H        14.3922320714        2.5280648756       15.8895129376
  H        13.7618881354        0.9782887446       16.6472242221
  C        13.1731498703        2.6315699457       17.6868678947
  H         7.1423424182        9.5460055895       16.3260349754
  C         6.5056044787        8.0767831647       17.6070484364
  H        14.2544459462        7.1414993499        5.7271832299
  H        14.4932427168        6.9640623402        4.0501716088
  C        15.6975386216        5.6438168636        5.0202158290
  H         6.8795642002        6.9250629925        3.5098581067
  H         7.7794032414        7.1594829862        2.0311969425
  C         6.1423318056        5.9018266265        1.8127074571
  N        11.5030205409       -0.9832294250        1.8645395251
  C        12.2055366437       -0.7365205698       -0.3685408477
  C        12.2340535153        1.4988926381       -1.4923283980
  H        12.2598600047        3.1310326798       -0.1702960449
  H        13.3133193994        1.9594501786       18.5304984526
  H        12.1436293147        2.8917740953       17.7315431418
  H        13.7950915216        3.5848123081       18.0264860929
  S         6.0616595208        6.4962060178       18.0049558791
  C         6.6735651744        9.0242354782       18.7622864718
  H        15.4610076659        4.7469631392        5.6309620042
  H        16.0166093787        5.5229709208        4.0134836986
  C        16.6863773512        6.2283782771        5.9105621065
  H         5.4611578128        5.4427514204        2.5371625765
  H         6.3381949612        5.1480530121        1.0453181948
  C         5.4294795688        7.1219433316        1.2734681622
  S        11.8159274116       -2.4865951084        1.3305470773
  N        12.2965181348       -2.1199224240       -0.2442777246
  C        12.4326575015        0.0017230493       -1.5363316212
  H        12.5742594849        2.1399466487       -2.3306975802
  C         5.9546652201        7.1560820523       19.6935807125
  N         6.1730985864        8.4846910170       19.8578673716
  O         7.2130721422       10.1443615520       18.7565420667
  H        16.6958623172        7.3096077011        5.7266806728
  H        16.2366538630        6.0976616261        6.8577900617
  C        18.0306454007        5.5490573953        5.9307799804
  H         6.2311599384        7.6983594369        0.7707710217
  H         4.6984127054        6.8591613800        0.5216096210
  C         4.8210040568        8.0485218818        2.3490287488
  C        12.7708670793       -0.7108716234       -2.7383453462
  S         5.5300370560        6.3468422711       21.0854876376
  C         6.1805082410        9.2223181177       21.1049660369
  H        17.8656096639        4.5092305076        5.7020131924
  H        18.5576922444        6.1157607300        5.1089512089
  C        18.7492935549        5.7263880387        7.3212111473
  H         5.5490240952        8.9021140074        2.4917884735
  H         4.6979385526        7.3602645575        3.1699482753
  C         3.4171026483        8.6411258955        1.9980349050
  H        12.8050749258       -1.8084978805       -2.6763424727
  C        13.1398086145       -0.3348648675       -3.9962751012
  H         5.3677942831        8.8741495987       21.6957870174
  H         5.8115261098       10.2163042040       20.8589511977
  C         7.4801211036        9.1635184014       21.8309575029
  H        18.4071595616        4.9932916106        8.0341967782
  H        18.4730274157        6.6812227969        7.7228958037
  C        20.2747193870        5.6883309077        7.2581249730
  H         2.5707418202        7.9631404783        1.8965564451
  H         3.1470357984        9.3222837207        2.7757314847
  C         3.4150246206        9.5513671818        0.7759589459
  S        13.6425390030        1.2410655583       -4.5247119934
  C        13.3019739487       -1.4286133090       -5.0080929049
  H         8.0512454896        8.3747428557       21.4006071053
  H         7.4108845737        9.1288380088       22.8792812897
  H         8.0288199327       10.0600514670       21.5660942460
  H        20.6830697112        4.8189188684        6.7571530529
  H        20.6884653120        6.4641796588        6.6205757441
  H        20.6857352016        5.8168693347        8.2787074277
  H         4.2228523049       10.2795162607        0.7554357742
  H         3.2780318318        9.1796440273       -0.1921906784
  H         2.6069161918       10.2637143725        0.8647746069
  C        13.9781313428        0.4690771764       -6.0662113402
  N        13.8167542899       -0.8435747047       -6.1156635272
  O        13.1180969076       -2.5798576546       -4.7680851759
  S        14.8586614841        1.2354607416       -7.4269807984
  C        14.2086979050       -1.8068753770       -7.1169042904
  H        14.4418772738       -2.7821205615       -6.6391502990
  H        15.1309946373       -1.5376804636       -7.5451439375
  C        13.1314140470       -1.9259095736       -8.1120760284
  H        13.3322130270       -2.8739099976       -8.5877539957
  H        13.1073955801       -1.1401148338       -8.8821645162
  H        12.1880341685       -1.8882934352       -7.6580636100
