352
 i =     9000, time =     4500.000, E =       149.2236554453
  H        11.0258359575        4.3885531249       31.7245951587
  C        10.7608508612        5.4556441535       31.9349904961
  H         9.6462418028        5.5311888860       32.1056519640
  C        11.2839512449        6.0882603419       30.6654057562
  C        11.4733126119        5.8593821725       33.2904474611
  C        10.7509066943        5.3053334874       29.5001106215
  H        11.0041097104        7.1451184361       30.6286972667
  H        12.3386417069        6.2535789369       30.5029417870
  H        12.5579744771        5.9755408491       33.1150028386
  H        11.0917462124        6.8010645262       33.8242130869
  H        11.4206575587        4.9529703882       33.9104402995
  C        11.2360464391        6.1303047166       28.2283675883
  H         9.6764260591        5.3285385916       29.7738273856
  H        11.0610583353        4.3010355856       29.5578759581
  C        11.3587256662        5.1351204713       27.0808132446
  H        10.5694592622        7.0008287169       27.9959517348
  H        12.2905875284        6.4152840476       28.4443061397
  C        10.0122119225        4.6365018123       26.3573243992
  H        12.0012505246        4.3399370098       27.3643627864
  H        11.9356208387        5.7197952756       26.3568872230
  C         8.9159656553        5.6710000949       26.0930121969
  H        10.2966444744        4.1358508476       25.3982927552
  H         9.6554747827        3.9053534075       27.1172243753
  C         7.5330334202        5.0171288718       25.5342620880
  H         8.6763609154        6.2565515598       27.0053728273
  H         9.3169570286        6.4352832938       25.4047060650
  C         7.1300966230        3.6869795208       26.2456715044
  C         7.7861694528        4.3238936947       24.2139426264
  C         6.3183084888        6.0560050658       25.5138875066
  C         7.2784979246        2.6218312083       25.4038413021
  C         6.5900116118        3.2592785850       27.4021996229
  C         7.7763008480        2.9985422886       24.1681976085
  C         8.3538972486        4.9678031513       23.0949402425
  H         6.7237954890        6.7641258111       24.8116469390
  H         6.2259666848        6.5793136999       26.4566531603
  C         4.9415553430        5.3314700356       25.1926686171
  S         6.7844661534        1.1365906027       26.0615860084
  C         6.4061349621        1.9123136437       27.5245614276
  H         6.5030531109        3.9668156355       28.1751711050
  C         8.1666989512        2.4410455503       23.0036986732
  H         8.5573991932        6.0184501917       23.2104188416
  C         8.6526420989        4.3109374462       21.9259697578
  H         5.1859890256        4.7097155711       24.2976854238
  H         4.6827073338        4.6540808081       25.9712033867
  C         3.7658417377        6.3006613294       24.7554436714
  C         5.9724004757        1.2298253709       28.8402452600
  C         8.6461033234        2.9817887044       21.8630530706
  H         8.0604877959        1.4173970887       22.9971188982
  C         8.9658436169        4.7409000382       20.6398843276
  H         2.9946512760        5.7439653631       24.1122682155
  H         4.0877878458        7.0939661663       24.1624020615
  C         2.8997589225        6.7940135026       25.8552653475
  C         6.0227517230       -0.1276366339       29.0181978231
  C         5.7168986976        2.1219483846       30.0389280216
  C         8.9179163433        2.3127523558       20.5902048412
  C         9.0781049370        3.6953477261       19.7841986318
  S         9.3044164455        6.2285038546       19.8256641004
  H         2.1948784025        7.6555169731       25.5048545935
  H         3.5344085035        6.8737074957       26.7746555988
  C         1.8764504114        5.7333134565       26.3167259915
  N         6.2566618527       -1.1290015870       28.0368665862
  C         5.7281093839       -0.6573069392       30.2975724147
  C         5.5669178044        1.4800676165       31.2782038310
  H         5.9829559058        3.2211069394       30.0772443984
  C         7.6453863846        1.4916930936       20.1039659342
  C        10.1584329622        1.4656066088       20.7049257126
  C         9.3432248126        4.0686085566       18.4582208084
  C         9.5720932602        5.4239779183       18.3225033768
  H         1.2646446117        5.4062744739       25.4481312913
  H         2.2703308961        4.8020490338       26.5542346358
  C         1.0582925160        6.2371865606       27.5467358153
  S         5.9480734963       -2.5636976019       28.8132165114
  N         5.6637726191       -2.0006416630       30.3031198928
  C         5.3478897056        0.0718024470       31.4164519232
  H         5.6229579834        2.1280265753       32.1324656683
  H         7.1614845880        0.8587729407       20.8610044649
  H         7.8409559169        0.8436510535       19.3027425862
  C         6.4692169199        2.3922319416       19.5752291827
  H        10.3026821100        1.0407842890       19.8119871561
  H        10.2040841512        0.6719817830       21.4764067899
  C        11.4239509646        2.2554457092       20.9790701632
  H         9.4636720510        3.2897579152       17.7645959570
  C         9.7838489677        6.1892764269       17.0094056176
  H         0.0478335919        6.6919075722       27.3154631700
  H         1.6394612412        7.0330499264       27.9323604029
  C         1.0431333648        5.1000326065       28.6111021628
  C         5.0807359090       -0.5844879170       32.7234661645
  H         6.8751607960        2.8986176456       18.6992114712
  H         6.1291776506        3.1199918095       20.3602818247
  C         5.2814958157        1.6109731723       19.0250554215
  H        11.4088033008        2.8225934140       21.9085415443
  H        11.6559423527        2.8454154789       20.0619375277
  C        12.5765773680        1.2568828951       21.2236016802
  C         9.8385576858        7.6275518487       16.9577195788
  C        10.0639870804        5.4234830653       15.7288799691
  H         0.0999506913        4.5701350038       28.4715655353
  H         1.9980928973        4.4981055077       28.5406712636
  C         1.1938563131        5.5503272884       30.0255545946
  H         5.1388102344       -1.7025738594       32.7622689212
  C         4.7672588055       -0.1038210072       33.9609941605
  H         5.0094091804        0.7968576390       19.6917339641
  H         5.5898192458        1.0489779748       18.1095792043
  C         4.0741230939        2.3876230573       18.6790369091
  H        12.4128404704        0.5289679864       21.9858421117
  H        12.6650517597        0.6752889369       20.3002033465
  C        13.8212078834        2.0870299136       21.5441860439
  N         9.6378460759        8.6089960486       18.0218453162
  C        10.1036247166        8.2624143898       15.7603893138
  C        10.3491317964        6.1376596636       14.4928532532
  H        10.1376066559        4.2970543700       15.6866001953
  H         0.7725222725        4.8171752367       30.7814025228
  H         2.1225804101        5.6954898645       30.5936853730
  H         0.5204727634        6.3921380580       30.2766430047
  S         4.4479645597        1.5183463843       34.4946434392
  C         4.7393820893       -1.0615970436       35.0869367239
  H         3.6561777174        3.0197347620       19.5541684213
  H         4.1941318103        3.0248547014       17.8985132082
  C         2.8506694463        1.5888814257       18.5176305233
  H        13.6887141398        3.0151659370       21.1659658057
  H        14.6176136116        1.6232524626       21.0247171563
  C        14.1796428834        2.1056320948       23.0164829858
  S         9.5360429151       10.0381506196       17.3264358386
  N        10.0619522379        9.6664586969       15.8151556337
  C        10.3769670668        7.6977552452       14.5187030453
  H        10.3982437177        5.5874206059       13.5232522293
  C         4.3012446087        0.8877894213       36.1132650575
  N         4.4057906860       -0.4208715603       36.2193011786
  O         4.9979016564       -2.2525501703       35.0189170753
  H         1.9490691366        2.0850237349       18.6218575064
  H         2.9549515566        0.9022431945       19.3233633673
  C         2.7456733758        0.8701075900       17.1273990420
  H        13.4676857584        2.7364340533       23.6045672133
  H        14.1129898302        1.1188720001       23.4631647843
  C        15.3657233853        2.8987754212       23.2685624540
  C        10.7402048859        8.4851484470       13.3731261409
  S         4.0299854230        1.8419751524       37.6503595238
  C         4.4837194356       -1.2027291598       37.5080545839
  H         1.8822101494        1.2085866684       16.6069444566
  H         3.6684743843        1.0844464792       16.5262152588
  C         2.7124747732       -0.6622615741       17.2605179808
  H        15.2180442539        3.3908696052       24.2544369045
  H        15.3503412463        3.6617813938       22.5157403061
  C        16.7155396730        2.0103629368       23.2317330348
  H        10.8145866012        9.5945009052       13.5195441525
  C        11.3149043093        8.1687190880       12.1160945502
  H         3.5612733402       -0.8648734816       37.9211459606
  H         4.4279017738       -2.1866122421       37.3254135023
  C         5.7467752013       -1.0015516499       38.3529851400
  H         3.2724549564       -1.1010662677       18.0330022918
  H         3.2075300586       -1.0755025766       16.4017849486
  C         1.2458896757       -1.0171852627       17.4898956882
  H        16.9034104141        1.6385737759       24.2209305412
  H        16.5097991634        1.2039720589       22.5868337997
  C        17.9398004984        2.8274081007       22.7889252079
  S        11.6997835724        6.5530464043       11.6049972652
  C        11.5358877971        9.2280250686       11.1249653915
  H         6.5794657314       -0.7576849756       37.7574368150
  H         5.6559531468       -0.1798305481       38.9805596508
  H         6.0749672470       -1.7799326112       39.0844262243
  H         1.3028518988       -1.8190788769       18.1387694468
  H         0.7457190917       -1.2895704632       16.5695665752
  H         0.6795279537       -0.2080467959       17.8824773447
  H        18.0714505919        3.8469304620       23.1473060302
  H        17.9504572058        2.8793455452       21.6711676076
  H        18.8043341748        2.2287658568       23.0723114146
  C        12.0337891166        7.2869662592       10.0510673615
  N        12.0129989807        8.6492439430       10.0244147406
  O        11.3320382539       10.4497254888       11.3597666250
  S        12.6891752097        6.4958574081        8.5979962602
  C        12.3408866018        9.4612086314        8.9074167671
  H        12.8809386151       10.3244943533        9.2771030646
  H        12.8686100737        8.9613939472        8.1384851302
  C        11.0888979806       10.0144959781        8.2260472455
  H        11.3586562279       10.4443609088        7.2592161680
  H        10.3930896156        9.2603465904        8.0234812346
  H        10.5856381804       10.6378584727        8.9665047851
  H         4.1707645476        2.0590013427       12.5614257676
  C         3.5901507420        2.9704253539       12.4234280758
  H         4.2401195398        3.8073897229       12.4120391234
  C         2.8113400923        2.7976015181       11.0930160834
  C         2.6702817138        2.9803173789       13.6152366365
  C         3.7459611016        2.7646658048        9.8863609403
  H         2.0995140599        3.6630139938       11.0443562693
  H         2.2812181508        1.8763359896       11.0512060161
  H         2.2002262744        1.9406545445       13.7009590668
  H         1.8035215579        3.6876068447       13.5002342029
  H         3.1743451555        3.2339878649       14.5368865804
  C         4.6459285393        1.5976693914        9.8990533901
  H         3.3754197135        2.7944822286        8.8849530195
  H         4.4331997166        3.6107285648        9.9628134586
  C         5.3954178017        1.2902305973        8.6087830483
  H         4.0211408817        0.7507942096       10.2358929740
  H         5.3593400324        1.7276812973       10.7627079053
  C         6.5844086872        2.1666027873        8.3747924911
  H         4.6601290653        1.3894954691        7.7428786636
  H         5.7588256145        0.2534704121        8.5764248173
  C         7.8222500882        1.6221931499        9.3236239877
  H         6.8539681385        2.2372885834        7.3740384458
  H         6.3910100937        3.1334285804        8.7114930841
  C         8.9778566004        2.6177303044        9.4539565144
  H         8.1373411488        0.6906629568        8.8460618082
  H         7.5172876632        1.3156636475       10.2684530495
  C         8.5709556848        3.9568279685       10.1432413250
  C         9.3989021679        3.2986486424        8.2045772870
  C        10.2423684540        2.0351238777       10.1551219059
  C         8.8299255748        5.0694005824        9.3325637856
  C         8.0213656692        4.4010084609       11.3232369007
  C         9.4136274160        4.6469621070        8.1445852775
  C         9.8801764052        2.7793337937        7.0331356015
  H         9.9880535889        1.5928587324       11.1030299352
  H        10.5905234076        1.2283473443        9.4365623993
  C        11.3507247710        3.0506263584       10.3086644316
  S         8.2935319738        6.5414560755        9.9289412715
  C         7.8911412033        5.7550802417       11.3497315385
  H         7.6538881093        3.6525198541       12.0474296727
  C         9.9263060271        5.2989720868        7.0608344949
  H        10.0206792659        1.7520179072        7.0047091052
  C        10.3783214565        3.3967667496        5.9339929205
  H        11.0907547011        3.9651455145       10.6653039504
  H        11.8946137383        3.0249239767        9.3439700457
  C        12.3281815946        2.4484269929       11.3465926366
  C         7.4035215273        6.4382747053       12.6311225801
  C        10.3124343618        4.7272459447        5.8283649015
  H         9.9546892773        6.3727455693        7.2558719344
  C        10.7236230501        3.0118439738        4.6512365607
  H        13.3591314563        2.5797070871       11.0581847693
  H        12.1596999665        1.3613861146       11.4129507008
  C        12.2941640042        3.1024452692       12.6768414975
  C         7.5004110900        7.7861378417       12.8728221469
  C         6.8577877861        5.6395670234       13.7698335225
  C        10.7951262568        5.4392216231        4.6560072244
  C        10.9699690895        4.1404207460        3.8847586480
  S        10.9990510568        1.5966573407        3.7943766009
  H        12.8634482276        4.0230198899       12.5154703240
  H        11.2246784695        3.3480026112       12.8112412683
  C        12.8235579408        2.2081590929       13.7893312071
  N         8.0059185069        8.7450724828       12.0140371076
  C         7.2602024967        8.3343257810       14.1434126032
  C         6.7743788986        6.1127132446       15.0733588686
  H         6.6098852631        4.6112432635       13.6866161495
  C        12.1080424493        6.2989978010        4.8001481927
  C         9.6347475883        6.3031147999        4.0220918977
  C        11.3226398736        3.8520901586        2.5113954859
  C        11.3983160317        2.5458097535        2.3738680926
  H        13.8877969054        2.1157467381       13.8153504329
  H        12.4590871189        1.2110829672       13.6354224827
  C        12.3239993466        2.5585991133       15.1384861191
  S         7.7937500714       10.2287748533       12.6565688381
  N         7.5436027958        9.7081714094       14.1960633360
  C         6.8408936959        7.6111282494       15.3092648627
  H         6.3825584323        5.3709077453       15.7263148339
  H        12.0376821305        7.1376498741        5.4011803459
  H        12.3515361711        6.7077495822        3.8057624894
  C        13.3701020383        5.4579308303        5.1624508055
  H         9.4971757916        7.0674534939        4.6475253779
  H        10.0544203618        6.7356083457        3.0615746928
  C         8.2936035478        5.5684586890        3.8082661562
  H        11.3118690020        4.5972478572        1.8227606377
  C        11.6397028505        1.8152409494        1.0940711828
  H        12.1450690109        3.5793195420       15.1772740604
  H        11.4516972013        1.9782923231       15.3791118703
  C        13.3842513639        2.2241854348       16.1603371224
  C         6.5420295012        8.2793327529       16.5310880052
  H        13.3426684500        4.9516663844        6.1094431761
  H        13.5199075751        4.7269877652        4.4202653705
  C        14.5165677425        6.4617499863        5.0778647615
  H         7.7542503258        5.3560230575        4.7041200644
  H         8.3916782576        4.6640123348        3.1498721298
  C         7.4813262359        6.4900594276        2.9799677783
  C        11.7943337304        0.3944806174        0.9108731569
  C        11.9159818583        2.5771377360       -0.1636808489
  H        14.3459665509        2.7525171907       15.9627236103
  H        13.5320611256        1.1608283188       16.1642639338
  C        12.9353095944        2.5189614083       17.5647294295
  H         6.8639083279        9.3241285901       16.5393515780
  C         6.1491984593        7.8070412490       17.7534748935
  H        14.4156390273        6.9931169203        5.9687953900
  H        14.2142380868        7.0501089422        4.2417833366
  C        15.9142926780        5.8572265954        5.0417316459
  H         7.1650043551        7.3236351767        3.6501546103
  H         8.0817956378        6.9622349238        2.2329852799
  C         6.1814479587        5.9276931306        2.5058773552
  N        11.5274079434       -0.5647937952        1.9274729228
  C        12.0702532836       -0.1336257604       -0.3735371372
  C        12.2174279653        2.0455881959       -1.4325193058
  H        11.6783520198        3.6456082694       -0.1090929900
  H        13.0081422220        3.6602261303       17.8700750922
  H        13.6003123997        1.9259879495       18.2693409863
  H        11.9187830810        2.2620711124       17.7227942730
  S         5.8733822875        6.2212101455       18.3212210617
  C         6.1734323866        8.8264182920       18.8772505059
  H        16.2056619715        5.2326894252        4.1698297168
  H        16.5277757976        6.6886983176        4.8609397822
  C        16.3813408163        5.2762260516        6.3741285242
  H         5.5837932553        5.5528768961        3.3474579787
  H         6.4629255416        4.9954234853        1.8845305617
  C         5.2084243267        6.8128985317        1.6628484036
  S        11.6062394117       -1.9968317888        1.2190980502
  N        12.2048707973       -1.5192317228       -0.2054385084
  C        12.2901435860        0.6270852740       -1.6073638067
  H        12.2182708248        2.7959529706       -2.2479562483
  C         5.8403542867        6.8228534082       19.9464514031
  N         6.0588130145        8.1833090184       20.0782362436
  O         6.3325811034       10.0245384457       18.6492513143
  H        16.2432113245        5.8946674251        7.1626546212
  H        15.7352096604        4.4302471050        6.5950535750
  C        17.8441700357        4.9346176225        6.4017849859
  H         5.3684381306        6.7120047325        0.5629738615
  H         4.1505277577        6.4284165494        1.8877247751
  C         5.3689099113        8.4015789384        1.8785523532
  C        12.5322448245       -0.1961051659       -2.7675305094
  S         5.4394258682        5.8618808795       21.3667378649
  C         6.1971315483        8.7637812347       21.4388900453
  H        18.1274852774        4.7851908768        7.4371117579
  H        17.8923351061        3.9790879077        5.8637742978
  C        18.8578409055        5.9087189331        5.7698953068
  H         6.4056544777        8.6612776905        1.6917681205
  H         5.0268561664        8.5790782958        2.9493156827
  C         4.3612171931        9.0498950077        0.9106263287
  H        12.3592261365       -1.2794688036       -2.7118610424
  C        13.2420513547        0.1399700681       -3.9768683174
  H         5.3305903206        8.5646034681       22.1054272740
  H         6.2426330154        9.8382484178       21.1547040148
  C         7.5742310876        8.5856452266       22.1565677426
  H        18.4027243624        6.9341045517        5.6323886890
  H        18.9565796369        5.6393765618        4.7417707094
  C        20.2541366095        5.8787519682        6.3918848075
  H         4.6261217203        8.9318510420       -0.1394047334
  H         3.3843328699        8.5926369806        1.0933799860
  C         4.3265601539       10.5819028344        1.1365549005
  S        13.7207634368        1.7027747071       -4.5312433653
  C        13.2930311662       -0.9092841980       -5.0195265862
  H         8.3409220017        9.4019017128       21.9252498374
  H         8.1354299310        7.6244197406       21.8784396068
  H         7.4210215423        8.7380347136       23.1859842734
  H        20.8785312489        6.7428227714        6.1548802235
  H        20.1421717400        5.7835604466        7.4673404631
  H        20.8541299536        4.9970819964        6.0472727238
  H         3.8889227869       10.9556775968        0.2908880665
  H         3.7213369926       10.5821022317        2.0054086022
  H         5.3302322384       10.8857877470        1.2506101290
  C        14.2352331638        0.8618690864       -5.9973351326
  N        13.9691774533       -0.4997520189       -6.0354829037
  O        12.9930724990       -2.0720056259       -4.8385143654
  S        15.1374880260        1.6921988758       -7.3695114644
  C        14.2283532038       -1.3226315935       -7.1603424824
  H        14.3649006776       -2.3040513440       -6.8324253619
  H        15.1826203224       -1.0231363655       -7.6125609187
  C        12.9260967903       -1.2948804164       -8.0342452570
  H        12.3558175498       -0.3199241581       -7.7919568074
  H        12.2159136395       -2.0977121005       -7.6683713269
  H        13.1225877245       -1.2033892023       -9.0959014286
