352
 i =   122000, time =    61000.000, E =        98.7862727260
  H        11.4674312436        7.7608185273       31.9936053610
  C        11.2658184514        6.7342760364       32.2917190426
  H        11.9267837728        6.4410879411       33.1151168913
  C        11.9958323741        6.0126408724       31.1081638047
  C         9.7985293728        6.3519193186       32.6463944964
  C        10.9915167562        5.4870483680       30.0710215107
  H        12.6025144084        6.7825310243       30.5387367517
  H        12.6864600337        5.2028269018       31.4269349159
  H         9.1121784695        7.0873781710       32.1677921181
  H         9.5452292654        5.2961532267       32.3404408379
  H         9.6645608564        6.4786346046       33.6945785214
  C        11.5600480495        5.2555118574       28.7223024568
  H        10.1535057918        6.2181749567       30.0836249903
  H        10.7267579242        4.4906772711       30.4384543435
  C        10.6933796875        5.8683274904       27.6007807801
  H        12.5050574039        5.8624235873       28.6553766542
  H        11.7746505086        4.2080234647       28.4738758904
  C         9.5874469463        4.9412421467       27.0060947617
  H        11.3395792535        6.1873898317       26.7902393123
  H        10.1838023876        6.7348738797       27.9529125846
  C         8.5272206891        5.8108117943       26.4473569347
  H        10.0158156423        4.3594104106       26.2079765749
  H         9.2248074823        4.1514644772       27.6872923245
  C         7.3933933332        5.0847200298       25.6363317120
  H         8.0670434687        6.4170772458       27.2366234729
  H         9.0117506617        6.5375371721       25.7796975415
  C         6.9900750450        3.7466203902       26.2571135941
  C         7.8846522301        4.4011295057       24.4489135869
  C         6.1062216670        5.8780654392       25.5727486701
  C         7.3066417999        2.6379382139       25.4896869205
  C         6.4368431086        3.3482823593       27.5078125263
  C         7.8118778157        3.0120762121       24.2706892393
  C         8.3164213353        5.1002009409       23.2891119974
  H         6.2826933878        6.7369572694       24.8572110968
  H         5.8852428220        6.4208028963       26.5097401090
  C         4.8664171633        5.0329802535       25.0606657246
  S         6.9182181712        1.1936520967       26.1431269766
  C         6.3012397884        1.9692500809       27.5184217075
  H         6.2330607476        4.2270394809       28.2652928000
  C         8.3093585583        2.4861793214       23.1365930149
  H         8.3210132145        6.1945651086       23.4411479329
  C         8.6640155670        4.5498117793       22.1226677601
  H         4.9459662242        4.8071717286       24.0477617052
  H         4.7899236287        4.0478580039       25.4912699203
  C         3.5734966307        5.8686635589       25.2266502081
  C         5.7628290759        1.2202379786       28.7116706376
  C         8.7053972708        3.2024368115       22.0502450415
  H         8.4483746563        1.4072281207       23.0579853989
  C         9.0967445626        4.9084459340       20.8938294715
  H         2.7536395692        5.3160961236       24.7512862332
  H         3.5895761967        6.9278979743       24.9397711514
  C         2.9816018815        6.1718758276       26.7172912272
  C         5.8131389101       -0.1555463925       28.9413148052
  C         5.2533240640        2.0065148585       29.8434668949
  C         9.2431140538        2.5128021760       20.7519006405
  C         9.4653703922        3.8936888209       20.0717493893
  S         9.0658869944        6.4615370767       20.2252229552
  H         2.1439178886        6.8850839079       26.6446217918
  H         3.7485351306        6.6716561570       27.2685927764
  C         2.4859185424        4.9037133326       27.4165342031
  N         6.3824067912       -1.1232753368       28.0985895670
  C         5.4485761898       -0.7507860704       30.1770926016
  C         4.9385867717        1.4820246258       31.0130941270
  H         5.1608543398        3.0792079818       29.7907781143
  C         8.1538237231        1.7367298674       19.9318744866
  C        10.5886664143        1.7539671568       20.8877426643
  C         9.8180497734        4.4414855372       18.8396389910
  C         9.6287791185        5.7569930407       18.7410218821
  H         2.1794822535        4.1135818651       26.6614396782
  H         3.2802005924        4.4848801861       27.9071665241
  C         1.2910494807        5.0298929848       28.3578656764
  S         6.2002917309       -2.5764922698       28.7962249555
  N         5.6158678148       -2.1097060602       30.2416822676
  C         5.0416252556        0.0130672590       31.2753235031
  H         4.5834381770        2.0415610812       31.7941441793
  H         8.1649337158        0.7426585497       20.3557522920
  H         8.4729249005        1.6550648014       18.8674577996
  C         6.7627614059        2.3408539365       19.9671702846
  H        10.7793161191        1.0769020780       20.0684217400
  H        10.5709860618        1.1329034190       21.8037518544
  C        11.7219585834        2.6522484839       21.1836387251
  H        10.1764798740        3.7890287544       18.0947000206
  C         9.8586309071        6.5169638775       17.4310190785
  H         0.9836418467        4.0183737603       28.6376960989
  H         0.3717193301        5.4081630721       27.9113968344
  C         1.5336578971        5.9239509159       29.5152992578
  C         4.9254567703       -0.6065900831       32.5658638489
  H         6.7281169205        3.4364617117       19.9188455017
  H         6.4036103231        2.0280170933       20.9327180454
  C         5.8405866938        1.7407461868       18.9313429794
  H        11.5105404235        3.4508705302       21.8919347090
  H        12.0357031742        3.0676325127       20.2384755683
  C        12.9578316556        1.8590454455       21.6061725725
  C         9.9956829667        7.9448843434       17.2953810619
  C        10.1438874890        5.7627640315       16.1771864343
  H         2.0789704775        6.7170731347       29.1180307351
  H         0.5876669458        6.4007339123       29.8757054993
  C         2.2623396743        5.2470291618       30.6946630616
  H         4.9314179210       -1.6702968826       32.6135546179
  C         4.6016861696       -0.0463864158       33.7875675018
  H         6.0996324008        0.7041330500       19.0754827490
  H         6.2127722391        1.9270110479       17.9439629386
  C         4.3713354756        2.1729254733       19.0401944048
  H        12.6424435926        1.0800704201       22.3545958081
  H        13.3045904635        1.3231204052       20.7659975963
  C        14.1704729771        2.7864018906       21.8524448388
  N         9.9052829880        8.8524557870       18.3376609400
  C        10.2950000895        8.5647121025       16.0254010706
  C        10.3908332665        6.4104211261       14.9373900773
  H         9.9840315330        4.7510720307       16.0895261481
  H         2.8090036980        4.3521565268       30.4728488244
  H         2.9703052861        5.8263066933       31.2508358184
  H         1.4815184869        4.9598028493       31.4659765668
  S         4.3406857744        1.5731601757       34.1660157825
  C         4.5196710213       -1.0208100975       34.8981182029
  H         4.1516320596        2.6234418204       20.0229210650
  H         4.0545858544        2.9681493202       18.2792237563
  C         3.4825692969        0.9030291335       18.9546467243
  H        14.0437531002        3.1816984408       22.8634322001
  H        14.1602165405        3.6237702289       21.2413395041
  C        15.5042909785        2.1212053109       21.8648123106
  S         9.9742548517       10.3384960755       17.6263052741
  N        10.4250845062        9.9171650243       16.1300931381
  C        10.5365225940        7.8386286195       14.8273741429
  H        10.4649167011        5.8188552990       14.0449570455
  C         4.0904069060        0.9760827851       35.8011824340
  N         4.0958654069       -0.3523087599       35.9720616699
  O         4.7808139759       -2.2150280183       34.8071588515
  H         2.4134618911        1.0241810109       19.0829613706
  H         3.8183974738        0.2107069117       19.6972371772
  C         3.6470964389        0.1987367862       17.5893560221
  H        15.4640554382        1.1962483691       22.4220519877
  H        15.6911583938        1.7851508834       20.8143782217
  C        16.7000688494        2.9465274501       22.3813024828
  C        10.7646478794        8.5656547303       13.5780438620
  S         3.6112103843        1.9780646176       37.0898984407
  C         3.9624296276       -1.0259053303       37.2886398342
  H         3.4851202069        0.9943065650       16.8659840677
  H         4.5792339805       -0.2921673399       17.4039798374
  C         2.4727766878       -0.7649383916       17.2630531700
  H        16.3435684800        3.8239158237       22.9889063591
  H        17.1660827111        3.3414924531       21.5107008291
  C        17.8238005449        2.0982746703       22.9952524231
  H        10.4989617006        9.5597618544       13.6596655826
  C        11.1831827193        8.1414656888       12.3012610488
  H         3.2753853744       -0.4812339378       37.9416843152
  H         3.4722278939       -1.9352419690       37.0985059640
  C         5.2332064599       -1.1371896005       38.0619674774
  H         2.1822439267       -0.5606582587       16.2309805824
  H         1.6271782424       -0.5530546258       17.8591537314
  C         2.8627299856       -2.2493914600       17.3302581095
  H        17.8367136175        1.0486868289       22.6863850542
  H        18.8040310744        2.3910239446       22.6675035032
  C        17.5485943782        1.9577579875       24.4725470247
  S        11.5741215845        6.5217212921       11.8350592018
  C        11.3020900041        9.1792164884       11.2645118510
  H         5.0415637119       -1.9488041028       38.7974760687
  H         6.0794429355       -1.4423607985       37.5044296320
  H         5.5104351964       -0.2029730678       38.4842641939
  H         2.2347332788       -2.6273760707       18.1626103764
  H         3.8770866215       -2.3804647338       17.3083822575
  H         2.6702453310       -2.7343718722       16.3626648711
  H        16.9366697662        1.0898341513       24.7187838720
  H        17.1157097679        2.7655191823       24.9195899250
  H        18.5149740976        1.8691614434       25.0301542878
  C        11.8800975389        7.2327621108       10.2102176935
  N        11.7467792818        8.5435143811       10.1264210517
  O        11.1177274322       10.3927730328       11.5456493693
  S        12.2882721160        6.4025253508        8.7606940695
  C        11.8926632443        9.3664686457        8.9529988379
  H        12.1455945821       10.3737041295        9.2379806863
  H        12.6613442751        8.9262835446        8.3123358714
  C        10.6108260650        9.5553250794        8.1020574100
  H        10.1889514727       10.5605398131        8.1325085071
  H        10.5975668635        9.3164846155        7.0009530692
  H         9.9594974429        8.7931140078        8.5068363717
  H         3.9589784083        3.8464773658       12.4089309296
  C         3.1545162979        3.0035279445       12.3863353836
  H         2.4178104106        3.2789781130       13.0864044713
  C         2.5240393097        2.6864636386       10.9343822898
  C         3.6870605023        1.8437736322       13.1830853270
  C         3.6716767497        2.7118512161        9.9129535007
  H         1.8579960399        3.4520589611       10.7354575639
  H         1.9557373961        1.7648671177       10.9922278286
  H         4.7023247638        2.1841297525       13.5858435672
  H         3.8172746298        1.0427308010       12.5657425477
  H         3.0333522544        1.5991290891       13.9891375933
  C         4.4666214141        1.4543246043        9.6132270253
  H         3.2365882397        2.9876929737        8.9607702009
  H         4.3843213773        3.5060304615       10.1544106723
  C         5.1742470718        1.5715255364        8.2153787499
  H         3.7613429829        0.5761219729        9.5539314077
  H         5.2481368753        1.1502706213       10.3818051726
  C         6.4211299689        2.4922087946        8.3172434243
  H         4.5276234811        1.8746680710        7.4431473082
  H         5.3747088749        0.5500696324        7.8170515935
  C         7.6037256367        1.7176380297        8.8268429042
  H         6.7974012230        2.8879778306        7.3643157934
  H         6.2197435975        3.3196069154        8.9336379766
  C         8.7831776100        2.6214043485        9.1697793310
  H         7.8761896522        0.8691464955        8.1367982877
  H         7.3725316976        1.1494990955        9.7376775137
  C         8.4419903522        3.9615698550        9.8354209893
  C         9.2896145648        3.3195964524        7.9329962999
  C         9.9665031468        1.9159354685        9.8555634371
  C         8.8196066552        5.1180610561        9.1271462362
  C         7.8432781723        4.3371429796       11.0666158908
  C         9.3090122919        4.6955495720        7.9032738627
  C         9.7621769398        2.6818580428        6.7867490289
  H         9.6245512354        1.3717170970       10.7324840383
  H        10.3207802012        1.1345746611        9.1454569656
  C        11.1042191180        2.8711845489       10.3612154342
  S         8.5397423908        6.6296856941        9.9929279511
  C         7.8620556861        5.7061047358       11.2883811579
  H         7.3548560316        3.6113514596       11.7039998284
  C         9.8010614711        5.2273584815        6.7653689826
  H         9.7619550911        1.5983090690        6.7438053530
  C        10.1807893155        3.3043796807        5.6700243484
  H        10.7744871595        3.5701090614       11.1263620317
  H        11.6239736617        3.4416854415        9.5192685103
  C        12.2579874979        2.0598457130       11.1577184481
  C         7.4832645722        6.3842716713       12.5508750365
  C        10.1262455529        4.6205901998        5.5701896689
  H        10.0395513112        6.3009594832        6.8673531592
  C        10.5566406111        2.9025710016        4.3984791145
  H        13.0947329041        2.7099277220       11.2580179107
  H        12.6261637915        1.1286079692       10.7774775021
  C        11.8361336591        1.9390102527       12.6754934900
  C         7.4516549980        7.7799084218       12.8312672377
  C         7.1830535756        5.5050990992       13.7124683116
  C        10.5395525253        5.3736697745        4.2902235034
  C        10.8233799368        4.0111918499        3.6470627537
  S        10.8132435681        1.3991065649        3.5357279102
  H        10.8849007241        2.4498462612       13.0527167859
  H        11.6003484619        0.9358628956       12.9101881229
  C        12.9887647275        2.1725709783       13.6826539378
  N         7.5655045056        8.7599859353       11.8323964934
  C         7.2960996649        8.2991025818       14.0916196700
  C         6.9107119923        6.0271106260       14.9849205435
  H         7.1428406952        4.4577386616       13.6704465696
  C        11.7925394417        6.2838316154        4.3609172688
  C         9.4393828252        6.0497443191        3.5227586699
  C        11.1782689520        3.6037782184        2.3183752800
  C        11.2700408787        2.2554664492        2.1253425274
  H        13.6455229429        2.9421669032       13.4630097141
  H        13.6166955509        1.2727684830       13.6365301899
  C        12.3610086488        2.4494827848       15.0910059674
  S         7.7102937146       10.1828978847       12.5988039585
  N         7.3026034717        9.6889868792       14.1089504890
  C         6.9031308861        7.4950170241       15.2374411218
  H         6.6265542721        5.2843108552       15.7567734620
  H        11.5834444963        7.0278199457        5.1659465978
  H        11.9315407057        6.7851782714        3.4359785686
  C        13.0730509571        5.4315062101        4.8821848595
  H         9.3068642864        7.0904595034        3.7444897018
  H         9.6505871030        6.0931121252        2.4760506717
  C         8.0658389799        5.3889816720        3.4714929727
  H        11.3356866158        4.3006921546        1.5082348286
  C        11.5910035898        1.4879367933        0.8113225372
  H        12.2124888359        3.5024132916       15.1412851367
  H        11.4047313953        1.8871492967       15.2019894250
  C        13.2133610125        1.8986775061       16.2613060437
  C         6.5037962979        8.1243486989       16.4191872747
  H        12.8280526113        4.6094242318        5.5243290679
  H        13.5168461765        5.0334921814        3.9494760508
  C        14.1904035481        6.1191183417        5.5564229145
  H         7.7752216227        5.4159272286        4.5466386129
  H         8.2116381785        4.3721682008        3.1843003331
  C         7.1365259692        6.2358821489        2.5790244143
  C        11.7363059283        0.1324231590        0.6528495849
  C        11.8514451020        2.2908862966       -0.3866174455
  H        14.2454583554        2.2999240831       16.1188452263
  H        13.4087687822        0.8391879536       16.1497100239
  C        12.5566026736        2.0508424201       17.6005588957
  H         6.6049692033        9.2055874018       16.3589991412
  C         6.2759741181        7.6532254131       17.6727732422
  H        13.7059877838        6.8286604222        6.2311634289
  H        14.7038011671        6.6812181769        4.8244952521
  C        15.0270767997        5.1990605299        6.4771189136
  H         6.8552922152        7.0649415524        3.1737520057
  H         7.6808664671        6.7271108928        1.8240589293
  C         5.8169866092        5.4966230500        2.0231583321
  N        11.4138597405       -0.7955095276        1.6023301506
  C        12.0323020257       -0.4836885413       -0.5640637053
  C        12.2174661616        1.6623498509       -1.5218130512
  H        11.7397437917        3.3478380360       -0.4176079627
  H        11.5315881695        1.7874491168       17.6720708388
  H        12.5533738044        3.0890697833       17.8573352224
  H        13.0163122975        1.4191975250       18.4000940551
  S         6.1818711805        6.0166900311       18.2231375807
  C         6.2136460739        8.7346320231       18.7146681831
  H        14.5872006655        4.7860120072        7.4186356804
  H        15.2699593654        4.2816352903        5.9433973616
  C        16.3764223778        5.7673644211        6.9061562754
  H         5.5159102234        4.8794260133        2.8456413154
  H         6.0778738631        4.7904227571        1.3198343383
  C         4.6092164674        6.4654178380        1.6266458771
  S        11.3534748609       -2.2281562052        0.8996118553
  N        12.0103181668       -1.8860162183       -0.5033710241
  C        12.4099556919        0.2293158879       -1.6992480926
  H        12.4899930872        2.2911846889       -2.3976559680
  C         6.0324178246        6.7693443522       19.8075890368
  N         5.9784276253        8.0993347689       19.8538785419
  O         6.0735286724        9.9440075675       18.5178528239
  H        16.7913412870        6.3446886428        6.0786587455
  H        16.1814904368        6.3746047092        7.7588459652
  C        17.4214383258        4.7353360411        7.3338825706
  H         4.8554281370        7.0142046006        0.7077459391
  H         3.7923224533        5.8758736756        1.3403425853
  C         4.3076219125        7.4825492686        2.7378733388
  C        12.8819810632       -0.4617072861       -2.8606314264
  S         5.8689545228        5.8753707102       21.3528715300
  C         5.8894409067        8.7758988281       21.1272685077
  H        17.1213817221        4.4597145137        8.3661878785
  H        17.3271482617        3.8287107074        6.7190422450
  C        18.8204083202        5.3445991240        7.3182723905
  H         4.8391984978        7.2208159013        3.5974639488
  H         3.3200722937        7.3096877489        3.2350869005
  C         4.4245639075        8.9861420116        2.3587817374
  H        12.6432043591       -1.5154665448       -2.8005930370
  C        13.2310517967       -0.0167956150       -4.1288606667
  H         5.1382350447        8.3009981136       21.7802409928
  H         5.4540041172        9.7522460179       20.9717429894
  C         7.2547727683        8.9757967193       21.7444335622
  H        19.2905140622        5.0740308685        8.2450883741
  H        18.7129027488        6.4697512802        7.3056275531
  C        19.6860404280        4.9484577742        6.1119536922
  H         4.1855716663        9.7149685742        3.1522924097
  H         5.4748380251        9.1658934125        2.0114384249
  C         3.5533792438        9.4275720445        1.1754622539
  S        13.8832185476        1.5294873510       -4.5949839075
  C        13.1285901626       -1.0195006213       -5.1693100226
  H         8.1381135324        9.1958872887       21.0823487117
  H         7.6591679171        8.0992081291       22.3386401419
  H         7.2082935068        9.8460206522       22.3676681435
  H        19.0997004348        4.3138733356        5.3788481560
  H        19.9495685178        5.8348015661        5.5747168993
  H        20.5371685948        4.3537266037        6.2569953421
  H         2.5211138214        9.1110492606        1.3990170806
  H         3.4997986179       10.5335272113        1.1860879916
  H         3.8926983216        9.0131552810        0.1988678222
  C        14.0042201551        0.7884608936       -6.1902846461
  N        13.7272420778       -0.5250592749       -6.2651881899
  O        12.7290520549       -2.1923644994       -5.1386485960
  S        14.8294172166        1.5155750591       -7.5371393478
  C        13.8779767052       -1.3145091131       -7.5207928635
  H        13.8899268483       -2.3823705848       -7.2572481657
  H        14.6773609595       -0.9838205595       -8.1549660488
  C        12.5566325999       -1.2040100248       -8.2954224758
  H        12.6754759891       -1.2790895722       -9.3816903835
  H        12.0724912086       -0.2579163394       -7.9977511453
  H        11.8217936393       -1.9591669309       -8.0245056553
