352
 i =    87100, time =    43550.000, E =        98.5415419366
  H        12.3983490301        6.4082978367       32.9847890145
  C        11.7593425010        5.5767606313       32.6733146843
  H        12.4232419587        4.8029830496       32.5751794119
  C        10.9701041144        5.9789764846       31.3924516965
  C        10.8227879824        5.2178978875       33.7704258874
  C        11.5629205107        5.5558109841       30.0258411576
  H         9.8714333942        5.7422575474       31.4615378876
  H        11.0520320060        7.0304765967       31.5035205720
  H        11.3669097877        4.9881964342       34.6509634156
  H        10.0302581611        5.9600943538       33.9890113551
  H        10.3403291502        4.2602515722       33.3887941867
  C        10.5679326152        4.8324041522       29.1115402885
  H        12.3913440046        4.9286675900       30.0918891523
  H        11.8133177579        6.5334513804       29.5911128750
  C        10.9254135245        4.9461183942       27.6402144216
  H        10.4097719447        3.8096584544       29.3128308020
  H         9.5509879744        5.2624664353       29.2005028043
  C         9.6527459864        4.6037763337       26.7834442443
  H        11.5908869852        4.1933469235       27.4463177309
  H        11.3341895976        5.8980939643       27.3921518372
  C         8.6501134921        5.7522562248       26.4996750581
  H         9.9224053602        4.1334481452       25.7786009020
  H         9.1280354455        3.7493317467       27.1942778923
  C         7.3137585327        5.3329841744       25.7885720490
  H         8.3535102840        6.2237793889       27.4586480803
  H         9.0819507654        6.4811549778       25.9013116206
  C         6.8362940371        4.0432035596       26.5322371645
  C         7.5494784561        4.5852177441       24.4814511285
  C         6.2683836802        6.5110199964       25.6174609945
  C         6.9436081539        2.9353139790       25.6737299238
  C         6.3447972464        3.6658788901       27.7987288093
  C         7.4212376735        3.2407947463       24.3901145230
  C         8.0767692243        5.1692896419       23.3110222224
  H         6.6315890486        7.4636788135       25.0851283879
  H         5.9663794845        6.7776534755       26.6362550512
  C         4.9723450578        6.0403479562       24.8980267168
  S         6.4721004387        1.4592931007       26.4596550819
  C         6.2677572169        2.3034884411       27.9054597638
  H         6.2821284016        4.4052644485       28.5984494343
  C         7.7214424381        2.5461836926       23.2420487967
  H         8.0358654398        6.2819612055       23.2287780815
  C         8.4542597673        4.5463724456       22.1533537844
  H         5.1570673785        5.9077910568       23.8452427877
  H         4.6874475845        5.0524474401       25.2060977502
  C         3.7012155215        6.8867058074       25.1641490850
  C         5.7899937271        1.5199956659       29.1204347473
  C         8.3508612815        3.1648702588       22.1239769162
  H         7.7825780377        1.4861480332       23.3892969275
  C         8.9020257761        4.9067144677       20.9218448392
  H         2.9113769371        6.6451245338       24.4779072308
  H         3.9206261990        7.9360244903       24.9903500115
  C         3.1394624641        6.7613498815       26.5620727519
  C         5.7955867825        0.1110272658       29.3359416448
  C         5.2642102659        2.3796947932       30.2534206068
  C         8.7494547036        2.4803389673       20.8501402994
  C         8.9486997583        3.7672732865       20.1268836303
  S         9.2099032811        6.3261325819       20.0897762796
  H         2.3066981361        7.5312739759       26.6128007531
  H         3.8928785910        7.1561826031       27.2600491984
  C         2.7038482200        5.3869153819       27.0101961220
  N         6.2314728821       -0.8177010835       28.4144960657
  C         5.4855208672       -0.4097899424       30.5682526589
  C         4.9456319592        1.7826489632       31.4916561270
  H         5.1315234677        3.4577573914       30.1716760260
  C         7.5924887623        1.5613822228       20.2153359659
  C        10.1215119867        1.7399493367       21.0228141967
  C         9.3837464060        4.1274549743       18.8625531188
  C         9.4832906811        5.4591114075       18.6644471322
  H         2.2187354988        4.9665596639       26.1700103336
  H         3.5507185745        4.7547080526       27.1280124501
  C         1.7903877152        5.2958037720       28.2164923646
  S         6.1739405300       -2.2870383493       29.1998986861
  N         5.6591969012       -1.7368434286       30.6786169356
  C         5.0827643207        0.3274468257       31.7458597383
  H         4.5186903272        2.4671041904       32.2372379571
  H         7.4124794446        0.6487020342       20.8619053250
  H         7.9732055576        1.1638392509       19.2658969404
  C         6.2133607147        2.2704632680       20.0599689811
  H        10.4283827249        1.4877258437       20.0542684838
  H        10.0291748825        0.8147035851       21.5670526460
  C        11.2632427083        2.4923443129       21.6864546065
  H         9.7159217249        3.3481130854       18.1536072439
  C         9.8825179629        6.1287445496       17.4191667490
  H         1.5380100785        4.2278807385       28.3208880294
  H         0.8825823906        5.7563338246       27.7978122644
  C         2.4504330507        5.9458366832       29.4679584560
  C         4.8472805781       -0.2729001086       33.0090718420
  H         6.0908064848        3.2698418434       20.4991241076
  H         5.5172669352        1.6182563016       20.6340715312
  C         5.8285903836        2.4317591735       18.5430672202
  H        10.9385926708        2.8136436690       22.6577386203
  H        11.4218977214        3.4076311026       21.2087469902
  C        12.5192948442        1.7070566818       21.8474473760
  C         9.9770026576        7.5435977772       17.2721685473
  C        10.0019902664        5.3219586685       16.1653425546
  H         3.3725020308        5.3919273890       29.5656065542
  H         2.5044655181        7.0245986643       29.3235987605
  C         1.5571777025        5.9019942911       30.7300329323
  H         4.8256714314       -1.3713144930       32.8621252201
  C         4.6588204656        0.2080671232       34.2579388888
  H         6.3400256207        1.8439011596       17.8597706281
  H         5.9424089790        3.4439137570       18.1930195410
  C         4.3660207454        2.0329524633       18.3466151454
  H        12.3864739585        0.9046819720       22.5791338140
  H        12.8478729274        1.1202257155       21.0691007767
  C        13.6224310242        2.7133831119       22.1915597259
  N         9.7309678574        8.5020233626       18.2116896392
  C        10.3823333026        8.0948195032       16.0806854097
  C        10.3756884972        5.9646263437       14.9378240608
  H         9.7925161549        4.2834097322       16.1151509986
  H         0.9253337929        4.9927184268       30.8595846612
  H         2.2173258549        6.1276034776       31.5503663750
  H         0.8570114969        6.7945797076       30.6671330985
  S         4.4331583655        1.8401849861       34.8473136388
  C         4.6533380240       -0.8195722273       35.3465858324
  H         3.6985332564        2.2072430568       19.1868927776
  H         3.9596835142        2.6142045316       17.4947022741
  C         4.1767107200        0.4958147430       18.2014039748
  H        13.2053296406        3.3939791500       22.9023535001
  H        13.8162509543        3.2367331744       21.2779489931
  C        14.8947416525        2.0294058258       22.6805992345
  S        10.0088009157        9.9195244870       17.5820235223
  N        10.4285671484        9.4819345561       16.0969262586
  C        10.5498927592        7.4083544181       14.9282855148
  H        10.5872673780        5.3011406517       14.0098346988
  C         4.3567179077        1.1222870997       36.4231830721
  N         4.3420423152       -0.2070598494       36.4879269996
  O         4.7915191426       -2.0316508920       35.1153054628
  H         4.7399700098       -0.0311748190       18.9579237339
  H         4.4523868700        0.1669640285       17.2285096692
  C         2.6694314035        0.1699518414       18.3615071149
  H        14.7260911086        1.5093308780       23.6919236695
  H        15.0760434119        1.1890891240       22.0447958088
  C        16.1295734144        2.9104940190       22.7962801944
  C        10.8016918915        8.1623155284       13.8035044262
  S         3.6771310542        1.9586740380       37.8390761098
  C         4.1661443456       -1.0281195539       37.6991815796
  H         2.3327782956        0.5677909990       19.2384000170
  H         1.9845725059        0.6310028508       17.6506660061
  C         2.4147649235       -1.2861804343       18.3372583477
  H        16.1391107942        3.2958741476       23.8008198323
  H        16.0259189468        3.8943261763       22.2695006321
  C        17.4739508355        2.2041297031       22.5315039958
  H        10.3619062327        9.0559295683       13.8461372786
  C        11.3376534347        7.9100361525       12.5826887890
  H         3.4025749703       -0.6990086351       38.4261005324
  H         3.9013427431       -2.0436772167       37.3993762685
  C         5.4989625177       -1.2506767095       38.4299697106
  H         1.4082958640       -1.2965415873       18.7783754346
  H         3.0134350498       -1.8400319508       19.0257448372
  C         2.3430850957       -1.8735299200       16.9580861233
  H        17.3199373298        1.4826562883       21.7450812791
  H        18.3559438657        2.7292542319       22.2004417825
  C        17.9172552039        1.6505785472       23.8833514507
  S        12.1729216099        6.4767443377       12.1261592381
  C        11.2085111053        8.9264638375       11.5178618591
  H         6.2288422960       -1.8733946505       37.8791963815
  H         5.8661723418       -0.2371864513       38.5062892784
  H         5.4447203487       -1.7120057327       39.3782319976
  H         3.1951011794       -1.7830277843       16.2655286023
  H         1.5387865020       -1.3953902933       16.3931325214
  H         2.2315014121       -2.9511168034       16.8838885229
  H        18.0267071478        2.4642815187       24.6447038435
  H        18.8594282147        1.0964458769       23.6919586366
  H        17.1774202116        0.9489636726       24.3036946906
  C        12.4414832861        7.2595486588       10.5655650211
  N        11.7528921435        8.4786293251       10.3850134748
  O        10.7914075159       10.1040160777       11.7492104128
  S        13.3658379687        6.5844445505        9.2248921946
  C        11.8652821412        9.3064710542        9.1693889746
  H        12.3969867372       10.1949132741        9.5347017177
  H        12.4575174336        8.8811037373        8.3289983567
  C        10.5622652070        9.8914390453        8.6058184017
  H         9.9238859345       10.4994393577        9.2745241516
  H        10.7005736580       10.4756161013        7.7228416281
  H        10.0220200900        8.9536686275        8.3449468754
  H         4.8629053429        1.5698879203       12.4274625382
  C         4.3281244602        2.5324259882       12.6322732306
  H         5.0131418396        3.4065317211       12.5809329496
  C         3.3486827469        2.6519783514       11.4899209537
  C         3.6942413926        2.3998060971       13.9969163078
  C         3.9093380568        3.0378346726       10.1691149990
  H         2.6660313890        3.3732388762       11.6497821197
  H         2.7097015504        1.7578453162       11.3895473082
  H         3.4410188177        1.3493216591       14.2151403559
  H         2.7518231038        2.9146752613       14.0116437870
  H         4.2954648017        2.7025770045       14.8008645012
  C         4.6124712050        1.7978644987        9.6815855876
  H         3.0876191305        3.2774751109        9.4911453747
  H         4.5518586720        3.9023189440       10.2557432940
  C         5.2678181700        1.9818065494        8.3137067360
  H         3.8874900259        0.9729527487        9.5626273457
  H         5.2968768031        1.4496738307       10.4122120764
  C         6.4936870685        2.8642515809        8.2550456915
  H         4.4004738643        2.1006248509        7.6556122459
  H         5.5974655357        0.9572344762        8.1810145714
  C         7.7306549266        2.1897050738        8.8417950897
  H         6.6231153252        3.0980884700        7.1852377155
  H         6.2893850996        3.7834597730        8.7202720104
  C         8.9902673787        3.1261830715        9.0855284462
  H         8.0489321986        1.3010202458        8.2920645320
  H         7.3545846305        1.8022421553        9.7861979383
  C         8.6405218577        4.4345087862        9.8332208502
  C         9.4197627226        3.8373110670        7.8645321799
  C        10.2047644513        2.4376133698        9.7306445991
  C         8.8155046473        5.5736462525        9.0817103436
  C         8.1533311084        4.7458855011       11.1372330290
  C         9.2782598107        5.1674129846        7.8243141410
  C         9.9557438460        3.1509480542        6.7727459390
  H         9.7342107682        1.8973194407       10.5303021495
  H        10.7147266587        1.7722606602        9.0976870989
  C        11.2086254342        3.4082391317       10.3760566794
  S         8.3079205120        7.0614492845        9.8325261325
  C         7.9121861942        6.1096368592       11.2365832479
  H         7.9914824579        3.9555970038       11.8168197414
  C         9.7712218443        5.7660586704        6.6973533397
  H         9.9312894544        2.0729856696        6.7774559575
  C        10.2948266529        3.7569113613        5.6193525314
  H        10.9766355833        3.9035237731       11.2724391732
  H        11.4654460311        4.2731550328        9.7531248225
  C        12.5473526678        2.6197297074       10.7292634238
  C         7.4493229088        6.7327647521       12.5136279674
  C        10.2232753969        5.1135978248        5.5416362618
  H         9.5985478069        6.7942736710        6.7202167087
  C        10.6392066834        3.4007527640        4.3573775942
  H        13.4865209701        3.2203241800       10.7060197813
  H        12.7373184593        1.8886243196        9.9515742136
  C        12.6073527394        1.8739147710       12.1409044016
  C         7.4683592598        8.1241391217       12.7967945651
  C         6.9589716407        5.8205037960       13.6197986193
  C        10.7453399547        5.8643417793        4.2268668779
  C        10.9475924601        4.5372363706        3.5701218882
  S        10.9620129923        1.9065382407        3.6869158109
  H        11.6898636780        1.4124076019       12.5241359244
  H        13.3235827440        1.0790362301       12.1230817987
  C        13.0575980318        2.8149681421       13.2242624106
  N         7.7114253828        9.1503960208       11.8680896592
  C         7.2547363082        8.6109081828       14.0813032600
  C         6.6747458785        6.3954156291       14.8317703365
  H         6.9499219445        4.7352878593       13.4884424201
  C        12.1299895416        6.5357342435        4.2450994711
  C         9.8567260353        6.8742164117        3.4990321712
  C        11.4650594140        4.1331089116        2.3304924949
  C        11.4124000445        2.7644968568        2.1854491775
  H        12.9770921219        3.8269349806       13.0133126035
  H        14.1130277808        2.7132262592       13.4296564435
  C        12.3756326264        2.6167534409       14.5919320775
  S         7.6141692342       10.6218445417       12.6656014290
  N         7.3392808187       10.0043581055       14.1271634343
  C         6.8855302987        7.7893498043       15.1804478788
  H         6.4427291899        5.6598258328       15.6283592049
  H        12.0131122674        7.5523721397        4.2079543428
  H        12.6968506574        6.2331316348        3.3582495126
  C        13.0255825382        6.0991853123        5.4297038511
  H         9.6749058852        7.7397093687        4.1304098452
  H        10.3055687739        7.2787400640        2.5898776015
  C         8.4654326888        6.2297664675        3.3642671821
  H        11.7405057780        4.9215233869        1.6452817610
  C        11.7239869675        2.0752345666        0.9344516464
  H        12.1521594624        3.6367022511       14.9125188025
  H        11.4344080092        2.1760519035       14.4443309565
  C        13.2218650181        1.8822872517       15.6252499992
  C         6.8048286227        8.4178129722       16.4693108402
  H        12.7231722805        6.8435341104        6.1770566189
  H        12.8505620324        5.0979544415        5.8169399249
  C        14.5440431947        6.3159690456        5.0827493037
  H         7.9009544187        6.3009693877        4.3010713359
  H         8.6169503328        5.1902424196        3.1707120414
  C         7.6729345105        6.6842325824        2.1178593628
  C        11.7257510608        0.6509743861        0.8337451090
  C        12.1986183006        2.8425353720       -0.2993570652
  H        14.3412313868        2.0272294000       15.3837217026
  H        12.9967143354        0.7851601983       15.4674614220
  C        12.9172063529        2.2627379948       17.0977524835
  H         6.9511170103        9.5092333848       16.4379219418
  C         6.3901786999        8.0183220782       17.7042604186
  H        14.6703200376        7.3469136042        4.8702182545
  H        14.6963467524        5.7771067438        4.1546909329
  C        15.3728329991        5.7939292986        6.2608727606
  H         7.9488553350        7.6687587288        1.7690539299
  H         8.0143147614        6.0084813659        1.3493211585
  C         6.1559152795        6.5059485200        2.3674066756
  N        11.6337969917       -0.3150896701        1.8256696893
  C        12.1444400495        0.0248259607       -0.3263867939
  C        12.4971621841        2.1783223194       -1.4945452236
  H        12.2318836802        3.9038849223       -0.2885680064
  H        11.8982404362        2.1225413487       17.3543995730
  H        13.1378964799        3.2698180566       17.3463481439
  H        13.4077925648        1.5792611904       17.7545097189
  S         6.0539377967        6.4039467730       18.1802687955
  C         6.3420885027        9.0061755470       18.7933671182
  H        15.3123793298        6.6219586238        7.0562524079
  H        14.8769757123        4.9315579545        6.6689953708
  C        16.8708491088        5.6216483637        5.9140139456
  H         5.7970225440        5.5606108268        2.7936382668
  H         5.6966773629        6.5292431651        1.4024310320
  C         5.4176632493        7.6497189816        3.1755918021
  S        11.8621116246       -1.7955365179        1.2203335935
  N        12.2249240151       -1.3779695368       -0.2617216605
  C        12.4754266444        0.7085915854       -1.5377166587
  H        12.8292569306        2.8664972790       -2.3422507322
  C         6.0133436069        7.0447423341       19.8528013541
  N         6.1165851858        8.3497598792       19.9796247607
  O         6.4470313412       10.2378237178       18.6444348822
  H        17.0283434927        5.1148274006        4.9554480130
  H        17.2674382150        6.6611074432        5.7135446751
  C        17.5858487982        5.0070473726        7.1520708231
  H         4.4900911224        7.3945267959        3.7463095785
  H         6.0853320570        7.8781841844        3.9637246902
  C         5.0526123914        8.7645888712        2.2139540840
  C        12.6925273208       -0.1078969266       -2.6982809766
  S         5.5753663433        6.1121466614       21.2990333192
  C         5.9993819582        9.0499135686       21.3048849274
  H        16.8632725273        4.9831222736        7.9482929793
  H        17.6640830097        3.9224627139        6.8866006932
  C        18.9487791579        5.5642325561        7.5867063771
  H         5.7663686471        8.7700548748        1.4682801614
  H         5.2046013637        9.7700314580        2.6149456436
  C         3.7214006449        8.6178727866        1.4631943522
  H        12.6637361070       -1.1362697955       -2.6406798671
  C        13.2032660215        0.1718372774       -3.9548924484
  H         5.6450122805        8.6578635055       22.2239979564
  H         5.4638993665        9.9856546001       21.1895825102
  C         7.4826751565        9.4054046833       21.7839816634
  H        19.4055412968        4.9198296954        8.4256606487
  H        18.8582530290        6.5728685038        7.8398740941
  C        19.7811926298        5.5348824916        6.4013179222
  H         3.7428156851        7.7756598119        0.7405260978
  H         2.8592798831        8.3706124976        2.0742969232
  C         3.4732942191        9.8014324416        0.5611459253
  S        13.6171324928        1.7262431902       -4.6217562415
  C        13.3129215890       -1.0403742911       -4.9015299500
  H         7.3223469038       10.3477569564       22.3345885327
  H         8.2055132225        9.5220421778       21.0018969633
  H         7.7583418957        8.6081520011       22.4764230335
  H        19.4548157031        6.3319412990        5.6793566133
  H        20.8778335569        5.7431833748        6.5763684793
  H        19.5434748814        4.5154032642        5.9983287218
  H         2.6090918144        9.6287960956       -0.0560001675
  H         3.1059866105       10.6035033504        1.1388550822
  H         4.3146177730       10.1677682780       -0.0072412993
  C        13.9426723304        0.7272500302       -6.0348650249
  N        13.7380253527       -0.6157987837       -6.0699325697
  O        12.9381944158       -2.1620197750       -4.5791069446
  S        14.4433905273        1.5144913214       -7.5821235588
  C        13.9554648348       -1.4844437649       -7.1953500206
  H        14.0549128706       -2.4802979632       -6.8103459861
  H        14.9135445291       -1.2316353858       -7.5270598148
  C        12.8239338070       -1.4765033771       -8.1569784223
  H        11.9253354066       -1.1806537511       -7.5703247748
  H        12.5564199470       -2.3114276214       -8.6985882954
  H        12.9526899792       -0.7341446115       -8.9070779198
