352
 i =   109100, time =    54550.000, E =        98.8743143576
  H         9.8825019502        5.1699091105       31.9881765264
  C        10.6266508454        5.8530787563       32.3463729819
  H        10.0837070083        6.7561103738       32.4823982841
  C        11.7053576794        5.9667416394       31.3301918071
  C        11.1467438110        5.3410759317       33.6848705394
  C        11.2578221634        6.6522325895       30.0467036944
  H        12.5173356639        6.4657857306       31.7497264440
  H        12.0439392778        4.9666540103       31.1133062581
  H        12.0184782585        4.6129636646       33.5592988737
  H        11.5783332736        6.1054146053       34.2900765242
  H        10.4243863370        4.8501909092       34.3034211207
  C        10.3742581360        5.8034589273       29.0297335121
  H        12.1540342337        6.9321154074       29.5410840680
  H        10.7802276498        7.5967683805       30.3401053588
  C        10.8562562991        5.8287337997       27.5571672727
  H        10.4127902204        4.6808553455       29.3720348404
  H         9.4230665141        6.2030176840       29.1002919504
  C         9.9774942120        5.1134424008       26.5404443190
  H        11.6938895320        5.2607951713       27.5938345356
  H        11.1257815128        6.7964679567       27.1506517465
  C         8.7379922234        6.0231974631       26.2587482273
  H        10.5432259593        4.6922901512       25.6400630038
  H         9.5971475854        4.2564433745       27.0114538615
  C         7.4933101282        5.3829499572       25.5890573740
  H         8.3847999823        6.4788307671       27.1977084553
  H         9.0633571819        6.8760796083       25.6389750162
  C         7.1151051741        4.0706342186       26.3161856287
  C         7.8509623920        4.6885639159       24.3446253199
  C         6.3206353005        6.3818792920       25.4296953180
  C         7.1860019646        2.9825262974       25.5137133944
  C         6.6750473998        3.7464712095       27.5849174902
  C         7.6962727329        3.3226935507       24.2759532051
  C         8.4681703627        5.2877930188       23.1584170556
  H         6.6420790944        7.2018352794       24.7786420990
  H         6.1278263454        6.7761994272       26.3973316056
  C         5.0852187764        5.7724326764       24.7326842052
  S         6.7600888164        1.4901523164       26.2499078298
  C         6.4914553338        2.3740164810       27.7150160744
  H         6.6640350979        4.4480135952       28.3739233795
  C         8.0945779583        2.6797024007       23.1459036326
  H         8.6491975292        6.3439661125       23.1301307830
  C         8.7844051444        4.5993823799       22.0393154511
  H         5.4278236605        5.6342072035       23.7131907644
  H         4.8650500353        4.7860825033       25.1100888090
  C         3.7994067326        6.6269409010       24.9083791775
  C         6.0910683291        1.6312617160       28.9454417581
  C         8.6129441316        3.2423470664       21.9870919566
  H         7.9921457975        1.6024585810       23.0996088623
  C         9.1876852470        4.9539135084       20.7450005070
  H         3.1064981464        6.3207299206       24.1534619882
  H         3.8697671798        7.7183013610       24.5307862279
  C         3.2519010198        6.6323929711       26.3468080429
  C         5.9563464257        0.2177663360       29.0829367846
  C         5.5527122613        2.3985943331       30.0844228136
  C         8.9352323410        2.4792943611       20.6990845193
  C         9.2796553033        3.7854622825       19.9458907496
  S         9.4559888306        6.3749196537       19.8659420891
  H         2.6150280279        7.4641761765       26.2987029241
  H         4.0101002118        6.8197065385       27.0642963380
  C         2.4681495573        5.3447833132       26.6431835465
  N         6.3150268866       -0.6747005546       28.0813935864
  C         5.6827179906       -0.3329367207       30.2710919925
  C         5.1560919651        1.8135131662       31.3035069427
  H         5.4425369638        3.3882916107       29.9439127334
  C         7.8083928923        1.6488003522       20.0475814734
  C        10.2988096469        1.7197550481       21.0068361057
  C         9.7418177969        4.0663171865       18.6224223445
  C         9.7991134964        5.4568533832       18.4104868329
  H         1.8595870614        4.9947581850       25.8128572035
  H         3.0497833380        4.5215249137       27.0047453507
  C         1.4135151507        5.6704773087       27.7938113147
  S         6.3343807560       -2.1343653505       28.6712383124
  N         5.8527093118       -1.7102873774       30.1670242252
  C         5.2990180922        0.3621224862       31.4556230812
  H         4.8096398003        2.4966083757       32.0237319557
  H         7.3692607109        0.9101928560       20.7890578574
  H         8.1760865887        1.2102254859       19.1986056227
  C         6.5919140201        2.4408981242       19.5051758336
  H        10.6116454044        1.1810404500       20.1271981481
  H        10.0959847160        0.9911438586       21.7670667456
  C        11.5689502919        2.5034931547       21.3316868461
  H        10.0314991100        3.2001148372       18.0235207699
  C        10.1188589846        6.1702687408       17.1588880068
  H         1.0235283009        4.6474286940       28.0941114328
  H         0.5293096653        6.1736521267       27.3803891295
  C         1.9792292087        6.4195435976       29.0112754120
  C         5.1090246747       -0.4228293858       32.6139284661
  H         6.7260524770        3.0574629276       18.5788256868
  H         6.4133587490        3.1324790297       20.2870417377
  C         5.3772292877        1.5993277056       19.0556750368
  H        11.4217482612        3.0468677140       22.2510540177
  H        11.6506182319        3.3249437939       20.6130558210
  C        12.9357654651        1.7323092223       21.4629637722
  C        10.1364390803        7.6095520637       17.0139169091
  C        10.2464606831        5.4013014695       15.8965380107
  H         2.3346100921        7.3407823000       28.6733750878
  H         1.1848192470        6.4591372991       29.6729159808
  C         3.0891104337        5.7358402835       29.8831296554
  H         4.9593724437       -1.4459108949       32.4061219700
  C         4.8549692530       -0.1034219871       33.8999086150
  H         4.7490127081        1.2419371389       19.9062767638
  H         5.7448752259        0.6859539803       18.6376439507
  C         4.5256091630        2.2594752580       17.9922888550
  H        12.7456432947        0.7731821271       21.9515498887
  H        13.2569109708        1.5736102481       20.4895873989
  C        14.0193707075        2.5642938571       22.1165318409
  N        10.0938612710        8.5540009571       18.0635910014
  C        10.3427345511        8.2824054264       15.7871493904
  C        10.4224939188        6.0996109315       14.7118514941
  H        10.3325350717        4.3356539959       15.9116839008
  H         3.4672777124        6.4312447635       30.6366232101
  H         2.7329738802        4.7478097871       30.1841662356
  H         3.9778495962        5.5427925335       29.3196695618
  S         4.6465085047        1.4916391568       34.6069516295
  C         4.6989176226       -1.2254617681       34.8074081958
  H         4.3577131988        3.2822597541       18.3538253366
  H         5.0956301125        2.4176434607       17.0715126461
  C         3.2185810338        1.5403800718       17.8186616734
  H        13.9170407378        2.5791580500       23.2316437254
  H        13.9489187283        3.5637441768       21.7888390110
  C        15.4197381541        2.1322910308       21.7832045036
  S        10.1389090294       10.0070589868       17.4632751274
  N        10.4595274445        9.6664345314       15.9225062356
  C        10.5281803855        7.5848665016       14.5923592398
  H        10.4515783591        5.5376739699       13.7685069968
  C         4.3688352286        0.6309030214       36.1370850096
  N         4.3800233446       -0.7123836447       36.0359353084
  O         4.5296530551       -2.3892211261       34.4733150349
  H         2.8133099934        2.0791213091       16.9229737671
  H         2.7584969297        1.7870508627       18.7516063845
  C         3.4521193321        0.0945702310       17.6490433244
  H        15.4859303157        1.0603782220       21.9230875285
  H        15.6790962339        2.2807437179       20.6918743367
  C        16.5586886413        2.8609931083       22.5848690941
  C        10.7486166601        8.3595477800       13.4357867390
  S         3.8259361539        1.4631604802       37.5318261746
  C         4.3024562476       -1.6695852941       37.1552578714
  H         4.3855944532       -0.1771713254       17.0855417851
  H         3.5689686520       -0.4205891446       18.6617522353
  C         2.2348626590       -0.5798896358       16.8892127384
  H        16.2198005046        2.7473794234       23.6326209224
  H        16.5825096317        3.9459692519       22.3694713828
  C        17.9728958026        2.2228635062       22.4759648231
  H        10.5752852191        9.4461780842       13.4934719850
  C        11.3196806400        8.0873955873       12.2312680509
  H         3.4921916229       -1.3370332206       37.7801141282
  H         4.0168619517       -2.6611190756       36.7278260006
  C         5.6608130095       -1.7531558386       37.8510354901
  H         2.1352396560       -0.0811622992       15.8880293741
  H         1.1955597475       -0.2460782723       17.2576986326
  C         2.3532898508       -2.0844768365       16.8271632042
  H        17.9731372638        1.2593316407       21.9143935118
  H        18.6292603480        2.8049035543       21.8804070082
  C        18.5549448994        1.9471052894       23.7983712890
  S        11.8168832453        6.5434303874       11.7105653144
  C        11.4521805756        9.1338185903       11.2262975406
  H         5.5325638816       -2.2801731867       38.8184336193
  H         6.4236615385       -2.2502998520       37.2871002497
  H         6.0341678382       -0.7514094789       38.1422707740
  H         1.9807397579       -2.6023992134       17.7333147710
  H         3.3254057932       -2.4908337909       16.4565481765
  H         1.6114618437       -2.2520513667       16.0798063405
  H        19.4456451359        1.3364638711       23.8709349670
  H        17.8049813771        1.4077069419       24.4369391989
  H        18.7480473689        2.8635825638       24.3380480548
  C        12.3522378592        7.3275586528       10.2392961723
  N        12.0579489212        8.6282350478       10.1732437460
  O        11.2240533101       10.3277774709       11.3934816872
  S        12.9039389130        6.4955808760        8.7941156261
  C        12.1810801692        9.5253399734        9.0405087174
  H        12.5876337908       10.4073723394        9.4818845069
  H        13.1001374931        9.3169483301        8.4426869093
  C        10.7839030509        9.8345377199        8.2868865089
  H         9.9891749270       10.0422343094        8.9806746502
  H        10.8899388680       10.7656756888        7.8360813471
  H        10.4345533400        9.1327962791        7.5171324695
  H         2.8810199322        3.4361431990       12.3686788389
  C         3.4697172626        2.5722463948       12.6430026410
  H         3.0789813781        1.7227274043       12.1135484786
  C         4.9564744451        2.8284899435       12.1265477451
  C         3.4096879090        2.4643191421       14.1463656328
  C         4.9232612186        3.1437987005       10.6202326777
  H         5.6417048614        2.0301624966       12.3697799389
  H         5.2226161367        3.6781588298       12.6495706787
  H         3.9097464223        3.3073188375       14.5840131997
  H         3.9697434690        1.5614315162       14.2955851505
  H         2.3984834289        2.3915301594       14.4699988451
  C         4.7370459723        1.8605924279        9.8291746603
  H         4.1622251601        3.9164511330       10.4006005798
  H         5.8854047273        3.5658961846       10.3868829506
  C         5.2565701937        1.8924075188        8.3362994043
  H         3.6842979644        1.6558911723        9.8013706792
  H         5.2274938006        1.0539538667       10.3186692872
  C         6.6937516343        2.4463724033        8.2080882445
  H         4.6406231198        2.3624664856        7.5742228973
  H         5.3226984128        0.9025328222        8.0206927307
  C         7.8179798256        2.0003288166        9.1935560464
  H         7.1399409026        2.2279469830        7.2517229705
  H         6.5535672982        3.4943987489        8.1413777458
  C         9.0727393753        2.9410965156        9.2939019992
  H         8.0488327915        1.0225566640        8.9318867187
  H         7.4349277577        1.9281744925       10.1720883834
  C         8.7091878297        4.2604776407        9.9023725807
  C         9.4595866715        3.4694026029        7.9807924478
  C        10.2389419520        2.1468798178        9.8692582047
  C         9.0399123937        5.3116957261        9.0898316564
  C         8.2032928009        4.7088885925       11.1758624642
  C         9.4246520327        4.8295443253        7.8276550086
  C         9.9694937124        2.8696639319        6.8673929657
  H         9.9383339388        1.5434431301       10.6773634955
  H        10.5800821300        1.4915163058        9.0105984096
  C        11.4433501700        2.9404409138       10.2444278070
  S         8.5558866977        6.8376249238        9.7750117017
  C         8.0594513111        6.0421170192       11.2259721995
  H         8.2015462283        3.9823995933       11.9006566571
  C         9.7776965643        5.3952536123        6.6267535496
  H        10.0985252865        1.7853774888        7.0586672672
  C        10.3441361520        3.4648432597        5.6609055244
  H        11.0930668642        3.7073910746       10.8749337819
  H        11.9853110897        3.4157929101        9.4307003384
  C        12.3517396964        2.0950976133       11.1426967981
  C         7.5726058358        6.6273814761       12.5053702079
  C        10.2362245486        4.7854040653        5.4808741271
  H         9.8851112564        6.4216663121        6.5933750574
  C        10.7457452362        3.0382962944        4.3829071473
  H        13.3444002963        2.5122137336       11.0433274134
  H        12.5596101599        1.0938212064       10.6704514941
  C        11.9454219600        2.0176464691       12.6607774184
  C         7.6260941674        8.0057998666       12.8488872517
  C         7.1419890802        5.7064849478       13.6887520517
  C        10.7106415655        5.4849200766        4.3020911502
  C        10.9322393533        4.1030255330        3.5490130000
  S        11.0454039001        1.5226208680        3.6666073271
  H        11.2077607931        2.7590600691       12.8111989670
  H        11.4743355415        1.0364481715       12.9131265494
  C        13.1504678513        2.2700613988       13.6301301320
  N         7.9558272520        9.0202115973       11.9768409179
  C         7.4524197040        8.4916636251       14.1178590413
  C         6.9358206004        6.2252185082       15.0026277849
  H         7.0903067962        4.6364200769       13.6051196921
  C        12.0401094147        6.2077891645        4.6096655969
  C         9.6350729449        6.3893093030        3.7391053627
  C        11.2611426820        3.7460493134        2.2221076381
  C        11.4291783315        2.4072440588        2.1946841777
  H        13.7686793610        3.1303726435       13.2935310408
  H        13.8174507068        1.4460362156       13.5711493659
  C        12.9000271013        2.2336009554       15.1221761558
  S         7.9960513618       10.4122255395       12.7739026337
  N         7.7001645000        9.8568157398       14.2403673752
  C         7.1220957638        7.7075555007       15.2198956036
  H         6.5514955680        5.6112400963       15.7806532060
  H        11.8155402458        6.9739592618        5.3945166622
  H        12.5949788827        6.6677160531        3.7751544290
  C        13.1326334194        5.2874640491        5.2139219054
  H         9.2298916994        6.9594907398        4.6041383979
  H        10.0677642598        7.1168290791        3.0940890810
  C         8.4406101008        5.6392120807        2.9921506713
  H        11.4852807684        4.5142045716        1.4861495937
  C        11.8283662647        1.6507572867        0.9422002013
  H        12.3320017998        3.1217884926       15.2852838825
  H        12.1389964050        1.4660082510       15.3709068762
  C        13.9925699174        2.2485849710       16.2270861886
  C         7.0849506452        8.3469448844       16.5186327058
  H        12.9270568496        4.8911998737        6.2158328320
  H        13.3329779152        4.4186423592        4.6189676226
  C        14.4854652175        6.0491749676        5.3192910425
  H         8.0170125064        4.9350834667        3.6933867075
  H         8.6981741253        5.0805043528        2.1102025706
  C         7.4461177192        6.6270660920        2.6089829301
  C        11.8082580591        0.2107800859        0.8569244059
  C        11.9216910703        2.4351207944       -0.3267229819
  H        14.7021686764        3.0621698429       16.0645010428
  H        14.5369434221        1.3584915426       16.3235997065
  C        13.5784121541        2.4499899560       17.6624773396
  H         7.4249706847        9.3774327503       16.5097607143
  C         6.7926328213        7.9108020659       17.7834688811
  H        14.2307666235        6.9791226909        5.7464660891
  H        14.9608749321        6.2910979991        4.3974955417
  C        15.4356133919        5.4144951045        6.3451203350
  H         7.1574715076        7.1305608979        3.4733803961
  H         7.9367293359        7.2955760947        1.9087048050
  C         6.1962906602        5.9188597171        2.1104178971
  N        11.4983445705       -0.7188574901        1.8861091723
  C        12.0461014839       -0.3583543724       -0.3644407162
  C        12.1845136362        1.7698824532       -1.5441247492
  H        11.7589042821        3.4940191005       -0.3212267441
  H        14.4247680599        2.6394439883       18.2236972957
  H        12.8660657593        1.7004410709       18.0200407838
  H        13.1646761809        3.4276603539       17.7378386146
  S         6.3038638516        6.2939915063       18.2828470530
  C         6.7034790923        8.9063367306       18.8582485625
  H        15.0441169761        5.1918719630        7.3749420831
  H        15.7111127940        4.3909217463        6.0462420987
  C        16.8592098427        6.1013466910        6.3352152833
  H         6.1188716241        4.9738725277        2.6056654977
  H         6.3914437912        5.5597710508        1.0913012816
  C         5.0129616708        6.8711480123        2.1136060448
  S        11.6908828447       -2.1924132912        1.2690281088
  N        12.0160249712       -1.7338108134       -0.2745831145
  C        12.3211296657        0.2958359339       -1.5941907703
  H        12.1299259219        2.2470860753       -2.4753844298
  C         6.1249736044        6.9574054010       19.9330093191
  N         6.3648135834        8.3287153326       19.9958036211
  O         7.0888220696       10.0769632900       18.8263975696
  H        17.3221926161        5.7997606384        5.4072547536
  H        16.8386379922        7.1435232014        6.2607434465
  C        17.6338933997        5.6152447427        7.5861949925
  H         4.1194480600        6.2374075080        2.3007363422
  H         5.1181171200        7.6523473811        2.8176977044
  C         4.7578913717        7.3521909852        0.7113643123
  C        12.6892955180       -0.4661459904       -2.7558626926
  S         5.2913120338        6.1409000806       21.2827063819
  C         6.3180142926        9.1048203709       21.2822447349
  H        16.8825843707        5.6943410814        8.3739651609
  H        17.9961112214        4.6050451273        7.3784806258
  C        18.8142712494        6.5077539056        7.7992475046
  H         4.7552260365        6.5354741938       -0.0622650053
  H         5.6468356180        7.9467552609        0.4075075320
  C         3.3925304018        8.1635979693        0.6597936239
  H        12.3131210724       -1.5312612359       -2.7127123785
  C        13.1413098891       -0.1722079775       -4.0628029009
  H         5.6181322083        8.6421961378       21.9100385606
  H         5.9157820328       10.0735998615       21.0812191690
  C         7.6719381955        9.1680666200       21.9766570260
  H        19.1638714241        6.3391013553        8.8006178128
  H        18.4795449813        7.5567239480        7.9129548941
  C        19.9710732871        6.3627512156        6.7589652753
  H         3.0582344076        8.0552169685       -0.3966271558
  H         2.6191203805        7.8535012683        1.3284736657
  C         3.5740417410        9.5980369749        1.1531603498
  S        13.7322863516        1.3338427370       -4.6757544687
  C        13.3043961880       -1.3088304415       -4.9805371654
  H         8.3592559736        8.3413878779       21.7802287072
  H         7.4675632947        9.0723976179       23.0571505974
  H         8.2029960888       10.0406039495       21.7049678317
  H        19.5136472236        6.7202111040        5.8453385603
  H        20.7312002611        7.0362773011        7.0449013809
  H        20.4502969967        5.4176073345        6.5831048413
  H         2.6514146002        9.8351826467        1.7213957387
  H         4.4272207481        9.7771066635        1.7347401907
  H         3.6264847963       10.2472610738        0.2967179666
  C        14.2973416402        0.3958930695       -6.0882867204
  N        14.0449250500       -0.9140033507       -6.0009220179
  O        12.8789136689       -2.4745371245       -4.8048685577
  S        14.8830850861        1.1082795186       -7.6289557158
  C        14.1587829386       -1.8774603408       -7.1075995420
  H        14.0814125233       -2.8985458184       -6.8542724290
  H        15.1713950719       -1.8196480708       -7.6670809603
  C        12.9714314692       -1.5823311252       -8.1218566173
  H        12.9538682332       -2.3782255930       -8.8878883821
  H        13.0798864245       -0.6181632119       -8.5654369814
  H        11.9971952376       -1.4404017199       -7.5991272599
