352
 i =   117200, time =    58600.000, E =       100.3211777614
  H         9.8149718784        6.1755323035       32.1822284563
  C        10.8614838998        5.8418008479       32.1324695355
  H        11.4951870898        6.6932439915       31.7932726780
  C        10.9871955986        4.7120455583       31.0901557434
  C        11.3626014826        5.3817797914       33.5422863529
  C        10.6095375489        5.2430975417       29.7214325241
  H        11.9911704554        4.1942641131       31.0407123713
  H        10.3094566140        3.9569884087       31.3792286964
  H        10.5337671533        5.2871999882       34.1974149598
  H        11.7093782416        4.3097856178       33.4017527020
  H        12.1062738579        6.0064861191       33.9426863604
  C        10.4502304532        4.3484575228       28.5114200006
  H        11.5071452987        5.8374466282       29.4881911191
  H         9.8106664379        5.9978011024       29.7820591289
  C        10.5550576633        5.2274339638       27.3579132916
  H        11.3212701407        3.6745804413       28.3847028031
  H         9.5598765522        3.8146588372       28.4805149076
  C         9.6805604686        4.8254724944       26.2488908960
  H        11.4898419963        5.0312906210       26.8167210264
  H        10.4701986105        6.2825825960       27.5740521661
  C         8.2984891324        5.5005521588       26.3862885659
  H        10.1822688696        5.1227266996       25.3442545038
  H         9.5510561549        3.7273404007       26.1817996606
  C         7.0135016841        4.7284137829       25.8144653456
  H         8.1403989226        5.5747163543       27.4780761417
  H         8.2695038232        6.5385115682       26.0016880875
  C         6.7136120875        3.3938136649       26.5339957212
  C         7.3637374463        4.0383533468       24.5267253475
  C         5.8106804209        5.6365834245       25.7708218516
  C         6.8208285596        2.3125296884       25.6391419217
  C         6.2026456143        2.9444392323       27.7989613598
  C         7.3312240410        2.7309185634       24.3861529229
  C         7.8673836551        4.6933109337       23.3596853871
  H         6.0355959477        6.6053067560       25.3384917191
  H         5.6002162089        5.8311985079       26.7820978923
  C         4.6557447011        4.9381959316       25.0787988427
  S         6.4232661647        0.8003870508       26.2748573188
  C         6.0169428801        1.5693283926       27.7777590002
  H         5.8903800912        3.7182076862       28.5656003201
  C         7.7066310762        2.1460988365       23.2033205372
  H         7.8550113865        5.7500013485       23.4501485786
  C         8.1913733086        4.0824570771       22.1486981233
  H         5.0515436291        4.7978494319       24.0684361848
  H         4.5309856221        3.9301276297       25.4023420763
  C         3.3460308988        5.7944229306       25.1852628432
  C         5.5241886055        0.8603871438       28.9832338900
  C         8.1630091244        2.8320392304       22.0913391632
  H         7.6720025317        1.0893025833       23.1400980233
  C         8.6370243522        4.5054418086       20.9302040924
  H         2.6512666718        5.2505520843       24.5577519029
  H         3.4929771425        6.7545636607       24.7029341321
  C         2.6844594332        6.0466198562       26.5903791898
  C         5.4713657641       -0.5371209059       29.1355134757
  C         5.3998269512        1.6181433714       30.2507958524
  C         8.6110510968        2.2040404837       20.8319749888
  C         8.9465277710        3.4971764390       20.0653126942
  S         8.9666585791        6.0575298988       20.2029351309
  H         1.7283084892        6.5427293358       26.3099679151
  H         3.2828010263        6.6983575211       27.1208770627
  C         2.2867784246        4.7079872129       27.2816307570
  N         5.6870912856       -1.4785981400       28.1266498326
  C         5.2893639722       -1.1181040571       30.3615009570
  C         5.0646338249        1.0576254532       31.4481807871
  H         5.4579567226        2.6872860601       30.3446784407
  C         7.5686167753        1.3815865317       20.0852300734
  C         9.9434358252        1.5218860665       21.1293189364
  C         9.4216748696        3.9194545275       18.7837319918
  C         9.3606328645        5.2689559784       18.7467537837
  H         1.9258661058        4.0282453818       26.4820154919
  H         3.2388334435        4.1674559223       27.5824718797
  C         1.3318216235        4.8313391733       28.4405396668
  S         5.8211757067       -2.9335087140       28.7865109367
  N         5.3137194138       -2.5005317667       30.2607638291
  C         5.0744236666       -0.4323409237       31.5611676890
  H         4.9693330760        1.5890344173       32.3795992144
  H         7.1450408908        0.5626717487       20.7293991710
  H         8.0377465531        1.0417185723       19.2549585281
  C         6.3581781837        2.2813915287       19.7506990579
  H        10.3836017508        1.1417796839       20.1966888403
  H         9.7930424635        0.5850585510       21.7441430464
  C        11.0879835316        2.3300596662       21.8447485957
  H         9.6875506980        3.2382512950       18.0749604381
  C         9.7275034470        6.0223755324       17.5326846164
  H         1.0924681709        3.7878093806       28.7804601536
  H         0.3715027576        5.2281866818       28.0335472842
  C         1.8703075843        5.7041176308       29.6037342090
  C         4.8338857255       -1.2176729528       32.7362991904
  H         6.6906187197        2.9480607323       18.9944971032
  H         5.9372601690        2.9073417528       20.5489847766
  C         5.0854314515        1.5795286363       19.2695886332
  H        10.6562286135        2.7173616823       22.7471822943
  H        11.3691144828        3.2592851443       21.2878490274
  C        12.3712639707        1.5941014596       22.2572810418
  C         9.6219461553        7.4092068040       17.3306669048
  C         9.9735924813        5.2019708357       16.3388150363
  H         2.2221096134        6.5523474963       29.0343256444
  H         1.1498318892        6.1173512954       30.2954977267
  C         3.1149884236        5.0910909037       30.3941000501
  H         5.1544947703       -2.2135881652       32.7511809294
  C         4.4807256135       -0.8762230387       34.0620521756
  H         4.4556151180        1.2082580493       20.0998343088
  H         5.5078074411        0.7406052332       18.7482993125
  C         4.1286909972        2.5098830006       18.4414724418
  H        12.1193323823        0.6097243492       22.7003970798
  H        12.8824759918        1.3981079534       21.2630927918
  C        13.3718506394        2.4160793761       23.1385920745
  N         9.3139044758        8.2972288172       18.3462127472
  C         9.9426440275        8.0189621368       16.1711928027
  C        10.1419471851        5.8709586246       15.0930833307
  H        10.0208488243        4.1314265668       16.2940049859
  H         3.3146367702        5.7051733013       31.2835418615
  H         2.8575799261        4.0210682399       30.5175684685
  H         4.0000424855        5.1527133451       29.8637762770
  S         4.1300998082        0.7010622324       34.5663845342
  C         4.4552109575       -1.9312068798       35.0675028440
  H         3.8611175976        3.3311362488       19.0889202453
  H         4.6819312253        2.9499224600       17.6364970295
  C         2.7912698245        1.8181387392       18.0883235807
  H        12.9968905540        2.2900128955       24.1956262593
  H        13.3261821759        3.5194089781       22.9357044289
  C        14.7480550592        1.7046239947       23.1313625555
  S         9.3149878792        9.8039747793       17.7426559621
  N         9.6843395141        9.3681086971       16.2317404162
  C        10.2849212638        7.3539136132       14.9813456083
  H        10.2876879473        5.2539494707       14.1981982211
  C         3.8900523659       -0.0929629049       36.1824904412
  N         4.0915713533       -1.4280599161       36.2621961727
  O         4.7232660042       -3.1149517875       34.8792403926
  H         2.1403892986        2.5348646549       17.5563466794
  H         2.2707104272        1.5589134037       19.0479557016
  C         2.7716659846        0.4456348521       17.3596860673
  H        15.1835644037        2.1737061253       24.0264697846
  H        14.7882383793        0.6772191307       23.0498306463
  C        15.6002202458        2.2752070772       21.9350963399
  C        10.5330126816        8.1310641994       13.8043332603
  S         3.5007720608        0.8065720049       37.6476055785
  C         4.0302947905       -2.1671563723       37.5318931135
  H         2.6481472295        0.6099316299       16.2834048414
  H         3.8398004611        0.0275652280       17.4127236641
  C         1.7059905528       -0.5942675917       17.9155419939
  H        15.7099421171        3.3552644761       22.0279780736
  H        15.1257150286        1.9941114394       21.0102436439
  C        16.9495277626        1.5906137591       21.8755853669
  H        10.6363282634        9.1922535333       13.9631134975
  C        10.8740207842        7.7987048226       12.4794699517
  H         3.1875833769       -1.9655565021       38.1960475796
  H         4.0047804007       -3.1924089763       37.2108284566
  C         5.2737351217       -1.9217031329       38.3901174410
  H         0.7182561564       -0.1019768630       17.9880141445
  H         2.0272901241       -0.7079741307       18.9292236706
  C         1.6403648121       -1.9605560412       17.1375579083
  H        16.8001960878        0.5649360258       21.9786943849
  H        17.3771039690        1.8087418014       20.9328446945
  C        17.8831818300        2.0088315176       23.0466458634
  S        11.2029868458        6.2789034332       11.8777970051
  C        10.9789084649        8.9129245061       11.4846143882
  H         5.3142466031       -2.8501355065       39.0102893645
  H         6.2167018363       -1.7978401239       37.9664484946
  H         5.0862397265       -1.0819024979       39.1285947709
  H         1.4607188806       -2.7885759499       17.8219910985
  H         2.5608035258       -2.1607391747       16.5136530652
  H         0.8014686039       -1.6868418791       16.4717574380
  H        17.3834711833        2.4528913804       23.9097874879
  H        18.6644177306        2.6349440698       22.7005400345
  H        18.2908976148        1.0991747388       23.4948596810
  C        11.5586106970        7.0639427252       10.3375872203
  N        11.4563653426        8.3993417339       10.3124593392
  O        10.7969039680       10.0666358517       11.7962718771
  S        12.1241803928        6.1758724080        8.9688121270
  C        11.5753458492        9.2079790759        9.1431215540
  H        11.5835096524       10.2999994668        9.3711505657
  H        12.5547867274        9.0501397928        8.5696626762
  C        10.3339188865        9.0855247000        8.2841391179
  H         9.4225117304        8.8336754697        8.8550130207
  H        10.0351535054       10.0721908855        7.8105275933
  H        10.3607023832        8.3434952791        7.4896233835
  H         2.4134662524        3.2583204159       12.9986694138
  C         2.8001915237        2.3299990930       12.5879684078
  H         2.3590156592        1.4251380875       12.9932234995
  C         2.5251976652        2.2193586130       11.1406150978
  C         4.2861366179        2.1383443709       13.0858990832
  C         3.5705570097        2.7377671072       10.0985202897
  H         1.4436843075        2.6415315412       10.9911412280
  H         2.5163989228        1.1512325642       10.9475057784
  H         4.9539386270        1.4952836492       12.5701850038
  H         4.1185318672        1.8181954077       14.1149940626
  H         4.7410905526        3.1791264074       13.1731362464
  C         4.3421051741        1.5359456951        9.5183271360
  H         3.0734091490        3.3678748430        9.3844002986
  H         4.2808028182        3.3829212403       10.6409076255
  C         5.0765808468        2.0384921990        8.2853294493
  H         3.5530998322        0.8745320670        9.1013196105
  H         4.9524453039        1.0094553372       10.2645538325
  C         6.3550000507        2.8206988047        8.5989684475
  H         4.3112330053        2.6384024827        7.7941778301
  H         5.2367381149        1.2131968434        7.6173242410
  C         7.5406346749        1.8994187494        9.0992333978
  H         6.7332529083        3.4343933436        7.7736828116
  H         6.0885077752        3.4637329679        9.4434354746
  C         8.8415270888        2.6860575151        9.2685252436
  H         7.6511624905        1.0167712405        8.4429529601
  H         7.3570932752        1.4402405372       10.1305009348
  C         8.6231595591        4.0395295322       10.0316270217
  C         9.3319998015        3.3868221363        8.0220807673
  C         9.9247728060        1.9426007142       10.0203918698
  C         8.7497530991        5.1184247460        9.2006490978
  C         8.1827664207        4.4131248019       11.2946771808
  C         9.1903851322        4.7437277428        7.9171046355
  C        10.0136984932        2.8248749673        6.9176186720
  H         9.5133910310        1.6117588693       10.9701804478
  H        10.2644970209        1.0603371249        9.5284890218
  C        11.2156671517        2.7076986645       10.3636168501
  S         8.2199283381        6.5746737867        9.9431779329
  C         7.8436812712        5.6957591416       11.4161233450
  H         7.9827867828        3.5706983157       12.0083873397
  C         9.5753176943        5.4340399457        6.7745040330
  H        10.1069728075        1.7397548795        6.8985064859
  C        10.3050816695        3.4994839358        5.7473322610
  H        11.0360453688        3.7149317637       10.5810010184
  H        11.8306643098        2.7974863765        9.4283874638
  C        12.0360505305        2.0519482175       11.4582588232
  C         7.3578938692        6.3476041940       12.7166935103
  C        10.2186397102        4.8622575801        5.6485415173
  H         9.5584883286        6.4954440506        6.7293389148
  C        10.6984041099        3.1409494296        4.5155183469
  H        13.0747609687        2.4281032943       11.4525655390
  H        11.9694951837        1.0358570646       11.2118517934
  C        11.6043027910        2.4544863771       12.8437250808
  C         7.2374022931        7.7771846016       12.9538159039
  C         6.9691774705        5.4962515373       13.8867158985
  C        10.6510256103        5.5881016602        4.3638618190
  C        10.9148172397        4.2461138627        3.6939746491
  S        11.0848345478        1.6679038890        3.8220923319
  H        12.1708828036        3.3903907024       13.1606029547
  H        10.5794600113        2.7016312118       12.8538578030
  C        11.8416572214        1.3348705167       13.9503468881
  N         7.4919951629        8.7105058931       11.9918393758
  C         6.8852099965        8.3489288245       14.1490515160
  C         6.7568417833        6.1275185954       15.1456691509
  H         7.1061383560        4.3823407453       13.8296591669
  C        11.8800939613        6.4200793685        4.7523362259
  C         9.4493976641        6.4080247523        3.8191589136
  C        11.3101996960        3.8479420628        2.4053439460
  C        11.4020185841        2.4715273688        2.2983574295
  H        12.9366515952        1.0038653145       13.7835198524
  H        11.2867528888        0.4610470720       13.6780603761
  C        11.5503625288        1.7628373786       15.4466877440
  S         7.3677058585       10.1822607473       12.6330750853
  N         6.9999280305        9.7346459373       14.1702469940
  C         6.6155399159        7.6143315282       15.3360667031
  H         6.5844791175        5.4769901739       16.0042487311
  H        11.6350967433        7.0948865751        5.6056147300
  H        12.1019461298        7.0384761839        3.8770237208
  C        13.1046294010        5.5855698921        5.2362781661
  H         9.2618492336        7.2728209268        4.5063171643
  H         9.7036427429        6.6350170828        2.7629481829
  C         8.1328881021        5.5761791920        3.7674449478
  H        11.5088626370        4.6350382381        1.7222295565
  C        11.7815664664        1.7633879323        1.0789352959
  H        11.2894437517        2.8101612357       15.3410898122
  H        10.7008696957        1.2743361188       15.9264487761
  C        12.7962153702        1.7830549102       16.2776720583
  C         6.2940357980        8.3352211664       16.5693097417
  H        12.7291987419        5.0392906787        6.1126333774
  H        13.4839248629        4.8392126077        4.5136522408
  C        14.0788864127        6.6182990999        5.7888462858
  H         8.0077220754        5.0584846135        4.6962591683
  H         8.2720960214        4.7722274511        3.0531388334
  C         6.9008830183        6.2285791191        3.4067204546
  C        11.8067065911        0.3664790214        0.8920258737
  C        12.0478927440        2.5087854020       -0.1309081362
  H        13.6021850213        1.9179444624       15.5595507985
  H        12.9822880074        0.8508661170       16.8083996274
  C        12.8361043127        2.8273870149       17.3881043710
  H         6.3589428306        9.4069057937       16.5417720620
  C         6.0876598597        7.9483025921       17.8513069179
  H        13.5943432412        7.3950459844        6.3510791671
  H        14.5833806625        7.0485951660        4.9913469162
  C        15.0247498686        5.9399643963        6.7244871755
  H         6.0179735054        5.6893761757        3.8017464547
  H         6.9652475139        7.2596000007        3.8718674285
  C         6.8021279862        6.4772838721        1.9492372418
  N        11.4677073051       -0.5616120855        1.8968805776
  C        12.0715944173       -0.2370438748       -0.3514693191
  C        12.3998850057        1.8914998088       -1.3806497456
  H        11.9751656374        3.5581410839       -0.1202577591
  H        13.8616646761        3.0014471468       17.6142165311
  H        12.3112588891        2.5295029375       18.2824102201
  H        12.4108455840        3.7693220217       17.0494554880
  S         5.8423127643        6.3677693173       18.5321952541
  C         5.9426218580        9.0034387453       18.8784906670
  H        14.7692361951        6.1453667913        7.7769616745
  H        14.9560032524        4.8887661780        6.6214120578
  C        16.4570810163        6.3101781761        6.3958169358
  H         6.8710062324        5.5329164827        1.4392848328
  H         7.5585872133        7.1101965728        1.5243223350
  C         5.3897669349        7.0199526865        1.6187117500
  S        11.5093468634       -2.1044905371        1.2321705558
  N        12.0254544494       -1.6486686874       -0.2263396205
  C        12.5046392383        0.3944840707       -1.5092578883
  H        12.6045948718        2.5237332775       -2.2062724391
  C         5.7965140677        7.0605115844       20.0909550318
  N         5.6783377570        8.3837537021       20.0409165706
  O         5.9491659863       10.2218603669       18.6978640627
  H        16.5307178897        6.4975795030        5.3247227405
  H        16.5667420477        7.2529953579        6.8129858202
  C        17.6060078933        5.4545118060        6.9744978984
  H         5.3576208664        6.9867395173        0.5450892896
  H         4.6092924639        6.3346617160        1.9849665224
  C         5.0988082099        8.4313155247        2.1846600600
  C        12.7644916581       -0.4830305769       -2.6266885404
  S         5.2855001103        6.1037087538       21.4977148363
  C         5.5581386627        9.2806253148       21.2422137756
  H        17.2419631335        5.1302795023        7.9613991308
  H        17.5774053501        4.5973146938        6.2810850195
  C        18.9764983897        6.1445671900        7.1822275313
  H         5.9644553852        9.0776982772        2.1398314928
  H         4.8681343797        8.4020350585        3.3081114532
  C         3.8546332237        8.9933020887        1.3905251341
  H        12.4666735477       -1.4914825807       -2.5108959039
  C        13.2914520034       -0.1863773060       -3.8598091185
  H         4.8705159235        8.9156575345       21.9582946355
  H         5.1272118585       10.2613063849       21.0461742337
  C         6.9343858973        9.4831873756       21.8187786963
  H        19.5202411186        5.6185394353        7.9805691607
  H        18.9052187920        7.2381121367        7.3361683623
  C        19.8550147448        5.7997319512        5.9615133241
  H         4.1690502758        9.1028537377        0.3557552400
  H         3.0510051132        8.2066149782        1.4272925319
  C         3.3910132826       10.3313185830        1.9945682282
  S        13.9666806951        1.2321613190       -4.3766100643
  C        13.2242282520       -1.2396144357       -4.9255156646
  H         7.8082553607        9.8070553822       21.2180777695
  H         7.2871565314        8.6164701439       22.3408871256
  H         6.9103431504       10.3525004782       22.5295688059
  H        19.8899890990        6.4733631560        5.1011314050
  H        20.9523996260        5.7521551812        6.2493745244
  H        19.5859208892        4.8801211674        5.4654589680
  H         3.7543991494       10.3519833519        2.9910378158
  H         3.7767660347       11.1288382869        1.3577315727
  H         2.2687129969       10.4815475531        1.9071852911
  C        14.1458644449        0.5915746951       -5.9842094754
  N        13.8079915071       -0.7323268494       -6.0505966912
  O        13.0139387667       -2.4718387554       -4.7238784046
  S        14.7630417163        1.4741154626       -7.3525314566
  C        14.0303386209       -1.5675654071       -7.2223980888
  H        14.2706963299       -2.5937193681       -6.8654755048
  H        14.8828278556       -1.2763145240       -7.8384866482
  C        12.7982170948       -1.4875837006       -8.2324481763
  H        11.8993458939       -1.0506864822       -7.6703966973
  H        12.4933605218       -2.4739684708       -8.4952395265
  H        13.1157418318       -0.9119377763       -9.1249339143
