352
 i =    37300, time =    18650.000, E =        97.5022590339
  H        10.8166079369        4.3308419889       31.7186790278
  C        10.8762036172        5.3333481620       32.1771207032
  H         9.8486372460        5.7579412398       32.2187898196
  C        11.8692038789        6.1176848260       31.3448955515
  C        11.2839824584        5.3256990486       33.6986539923
  C        11.8891744103        5.7457325844       29.8421714661
  H        11.6386334494        7.1648481118       31.5908564569
  H        12.7816900991        5.8912200741       31.8261803344
  H        10.4017509623        5.7591116832       34.1942087501
  H        11.3156652796        4.3537474957       34.1879275375
  H        12.1977056642        5.8314438995       33.9272681284
  C        10.6158906341        5.6418364438       29.0344656137
  H        12.3613325200        4.7187698947       29.8894266530
  H        12.5802040749        6.3300124910       29.2707131784
  C        10.7898256277        4.9924877441       27.6847652172
  H         9.8373349796        5.1017034155       29.6025623016
  H        10.2459497087        6.6842123791       28.8247441375
  C         9.6304911999        4.4191850765       26.9588008193
  H        11.4863282075        4.1491723031       27.8259047131
  H        11.1006156439        5.7113610297       26.9280807043
  C         8.5564214950        5.4742524982       26.3853414731
  H         9.9896108075        3.6206380047       26.1931130918
  H         9.1087892111        3.8068489310       27.6196843502
  C         7.3643541202        4.8206929633       25.6590109341
  H         8.3124040819        6.2619385574       27.0750753735
  H         9.0930193102        6.0547367404       25.6594479793
  C         6.9861171570        3.5039739430       26.3187619903
  C         7.7327128551        4.1389845450       24.3901222067
  C         6.1345246350        5.8277616005       25.5367057134
  C         7.2051728014        2.4050090258       25.4556682558
  C         6.4712726912        3.0616953567       27.5391750915
  C         7.7373701911        2.8386226065       24.2777241483
  C         8.2629796171        4.8968657160       23.3082025415
  H         6.4708769250        6.4652004564       24.7732801729
  H         5.9961279485        6.4699556436       26.4494413397
  C         4.8467541124        5.1548234505       24.9888192810
  S         6.9673957272        0.8539537191       26.2360118757
  C         6.3938254402        1.7200448539       27.6682579884
  H         6.2784056666        3.8657263288       28.2289920096
  C         8.2816431365        2.2481256401       23.1812127791
  H         8.2710204774        5.9773315401       23.3492477064
  C         8.6765323196        4.2841442992       22.1520115131
  H         5.0820324779        4.7315637467       24.0481266359
  H         4.5300532973        4.3364048508       25.6335351869
  C         3.7205638802        6.0927965450       24.6105585274
  C         5.9865486376        1.0528560589       28.9518747181
  C         8.7042144397        2.9403631506       22.0105314220
  H         8.3415672923        1.1723780757       23.2234176458
  C         9.0309880384        4.7394685081       20.8978207778
  H         3.1880968408        5.7553001501       23.7292960929
  H         4.2049174759        6.9406341368       24.1586527029
  C         2.7680269469        6.4443442476       25.8242611852
  C         6.0325386336       -0.3555064491       29.2281582791
  C         5.6677679815        1.9213891199       30.1522860562
  C         9.1762929941        2.2475993357       20.7267006218
  C         9.2771751337        3.6521605955       20.0948257852
  S         9.2999806363        6.1623608550       20.0406672498
  H         2.1865630045        7.2889371780       25.5034422986
  H         3.2717622285        7.0039676533       26.6052236684
  C         1.9624605632        5.1739796876       26.2863898546
  N         6.3128105012       -1.3117265232       28.3079184884
  C         5.7426107922       -0.8248252940       30.5043190393
  C         5.3857392980        1.3464525907       31.4309969346
  H         5.4979168027        2.9950191305       29.9480933075
  C         7.9928547326        1.4299700794       20.0981408858
  C        10.5181094906        1.4050369669       20.8322319209
  C         9.6963202901        3.9461350509       18.7797665622
  C         9.7605357996        5.2791156341       18.6625194497
  H         1.0093536197        4.9750341701       25.7510933330
  H         2.4964741369        4.2477759188       26.2016480503
  C         1.5281320382        5.3392337593       27.7778793878
  S         6.1857096433       -2.7505575572       29.0385784303
  N         5.5174231937       -2.2093699132       30.4170323996
  C         5.4190699492       -0.0761545751       31.6332503690
  H         5.0910268601        2.0249326780       32.2382784892
  H         7.8831314260        0.5399227149       20.7391388975
  H         8.2221832699        1.1647782918       19.0604187886
  C         6.6359021880        2.0435232703       20.0154856473
  H        10.8377516961        1.0519349901       19.8667921736
  H        10.2822810149        0.6010905931       21.5639994936
  C        11.7081712310        2.2286800009       21.4203591705
  H         9.8620302305        3.1892970111       18.1095405302
  C        10.1429363013        6.0087310612       17.3939292130
  H         0.7532864187        4.6014521863       27.9336540595
  H         1.0999928732        6.3306615920       28.0038695913
  C         2.6755694128        5.3683268528       28.7825407201
  C         5.1891471881       -0.7255982825       32.9048174961
  H         6.6888161337        2.9496073723       19.3902518944
  H         6.2481046177        2.2935584099       21.0076344450
  C         5.6491375556        1.0603907834       19.2776668558
  H        11.4039239240        2.7940856482       22.2763020641
  H        12.0820253310        3.0109526665       20.7059456978
  C        12.8757937380        1.3383129214       21.7280950756
  C        10.2333017893        7.3993101157       17.2045716422
  C        10.3700799106        5.1692320449       16.1334535839
  H         3.4287446550        4.5593979160       28.4489218313
  H         3.1953304445        6.3007977420       28.7453713337
  C         2.2157547484        4.9742316101       30.1847785415
  H         5.2742922712       -1.7414520027       32.8166936691
  C         4.7227337549       -0.3395597611       34.1585997703
  H         5.2495587350        0.3683395486       19.9833022613
  H         6.1598929789        0.3923406763       18.5281590676
  C         4.5880272701        1.7380909767       18.3684721088
  H        12.6387723069        0.5828459736       22.4646627922
  H        13.1015889948        0.7479134225       20.8801700375
  C        14.1275322100        2.1457623599       22.0200611544
  N         9.9280340580        8.3239005192       18.1690882790
  C        10.4647034476        7.9936471779       15.9632856313
  C        10.6184061929        5.7765636422       14.9181334626
  H        10.2984476861        4.1158426573       16.0978121267
  H         2.0722111016        5.8249239340       30.7607375782
  H         1.2490603889        4.4689328233       30.2317805207
  H         2.9667957485        4.3480936409       30.6520075904
  S         4.3833154449        1.2438535868       34.6537789396
  C         4.7145357768       -1.3052510224       35.2680476487
  H         4.0800620307        2.5827801107       18.9565412062
  H         5.1218065125        2.0695317927       17.4870313064
  C         3.4683731698        0.7193634370       18.0281330187
  H        13.8506254547        2.9580621558       22.6895660219
  H        14.6173766974        2.6711578161       21.2081622867
  C        15.2874736633        1.3422754091       22.5731164061
  S         9.8767056795        9.8287671000       17.5381004336
  N        10.3071843492        9.3698349269       16.0345816553
  C        10.7073625583        7.2588865024       14.7537799250
  H        10.7449418920        5.1406534132       14.0727654696
  C         4.3112993303        0.6374124885       36.3401878195
  N         4.3212800396       -0.7418496158       36.4343722502
  O         4.8512601232       -2.5578724006       35.0919586535
  H         2.6716138288        1.1348131958       17.3613693792
  H         2.9231104360        0.3274457190       18.8730787626
  C         3.8990549100       -0.4967090950       17.1830244654
  H        15.0643724553        0.4548707871       23.1315426200
  H        15.7948511707        0.8258023763       21.7640503049
  C        16.2671570937        2.3366208959       23.2433089919
  C        10.9454001392        7.9689578125       13.5489354373
  S         3.7515261603        1.6552849012       37.6334378967
  C         4.2990847990       -1.6075725491       37.6615504642
  H         3.2941838430       -0.5045977498       16.1791519326
  H         4.9657736489       -0.5869217726       16.7942345734
  C         3.5641273998       -1.8589804394       17.7839189131
  H        15.7679567530        2.7771206498       24.0599884585
  H        16.4720298422        3.1295627336       22.5530158133
  C        17.4895687801        1.5819043814       23.8234175006
  H        10.7704648804        9.0011115873       13.6852801460
  C        11.4477652295        7.5820167785       12.3338984129
  H         3.6789656597       -1.2009189774       38.4301982567
  H         4.0142899796       -2.6577915353       37.3908001377
  C         5.7922092652       -1.8009928770       38.1325500699
  H         2.5142464880       -1.7934463725       18.1206118389
  H         4.1638078823       -1.9463579336       18.7145069680
  C         3.8344033738       -3.1032274495       16.9689564786
  H        17.8233580673        2.1209420927       24.7723944836
  H        17.2960815413        0.5591909868       24.0780036814
  C        18.7059066920        1.6531539252       22.8705715393
  S        11.7420849504        5.9939346003       11.7839517084
  C        11.5528795654        8.5776121864       11.2399990640
  H         6.5119487424       -2.4666560897       37.5950013734
  H         6.2786167706       -0.8554686421       38.2151233909
  H         5.6254848861       -2.1849920830       39.1076499012
  H         4.8117115095       -3.0100233764       16.3043591927
  H         3.0355737261       -3.2334840594       16.2531895705
  H         3.9091227568       -4.0618145522       17.4624878140
  H        19.5023948875        0.9974159067       23.3491793840
  H        19.0281663790        2.6310150124       22.6814653602
  H        18.4689761679        1.1094325820       21.8686292835
  C        12.3428518235        6.7602262238       10.2691730131
  N        12.2532426674        8.0752387081       10.2004958395
  O        11.1933935626        9.7396709338       11.3779054481
  S        12.6689419215        5.9779141035        8.7792083303
  C        12.4360831630        8.8830950751        9.0034769487
  H        12.8825939987        9.8280016202        9.3107302407
  H        13.2566862877        8.3663281753        8.3782515848
  C        11.1724344139        9.0404960212        8.1039033056
  H        10.5974007328        9.9488337885        8.3751170118
  H        11.4043582608        9.0401996818        7.0632616734
  H        10.5218361535        8.2256884882        8.3005308268
  H         2.9483609873        0.9573131380       13.8290640193
  C         3.7189506465        1.4968387889       13.3546730456
  H         4.5588720415        0.8432230266       13.0767565547
  C         3.1361353131        2.1952918954       12.1021557941
  C         4.0213511548        2.3403956959       14.4753581843
  C         4.1428099722        2.4017588867       10.9176321202
  H         2.6078944111        3.1042822089       12.3752121671
  H         2.2674607440        1.5235796990       11.7572799353
  H         4.3796939170        1.6706755834       15.2681275311
  H         3.0999518555        2.9112881962       14.7703604283
  H         4.7707995542        3.0059283178       14.1292486212
  C         4.6454389299        1.0251068763       10.3596037128
  H         3.5919212278        3.0045640195       10.1737104473
  H         5.0085716053        2.9295659222       11.1626416928
  C         5.1831353320        1.2126226003        8.9431785980
  H         3.8502267221        0.3055765370       10.2923460105
  H         5.3665105780        0.5145126282       10.9874399887
  C         6.4542626293        2.0453022558        8.8114924882
  H         4.4218166252        1.7508046931        8.3142230431
  H         5.3458460777        0.3219538719        8.3356486519
  C         7.8084801217        1.4563808387        9.3005476135
  H         6.5100631878        2.2829388673        7.7466375676
  H         6.3456972841        2.9156682403        9.4386591499
  C         9.1195737359        2.3341140202        9.1311958629
  H         8.0904222979        0.5368439513        8.7927567586
  H         7.7126225683        1.0153813529       10.2691761881
  C         8.8023071077        3.6617317885        9.8846297831
  C         9.3884689202        3.1260736352        7.8593381765
  C        10.3615370816        1.5805556484        9.6682688729
  C         8.8654976528        4.7779040477        9.1001249578
  C         8.3222615088        4.0232055409       11.1492704932
  C         9.2270041131        4.4433426840        7.7897237689
  C         9.9582738936        2.5075456376        6.7336684167
  H        10.0733695399        0.8731312495       10.4367159281
  H        10.7332888119        0.9063518552        8.8628255720
  C        11.4820792528        2.5557909462       10.1130881277
  S         8.5198386834        6.2630346876        9.8990677858
  C         8.1329540543        5.3932440515       11.3527984203
  H         8.1487455601        3.2655353645       11.8809063270
  C         9.4353241608        5.1545591811        6.6165245562
  H        10.0509458788        1.4104595982        6.7199307175
  C        10.2395080914        3.2407634480        5.6213255720
  H        11.0758220453        3.3178790677       10.8075980801
  H        11.8746863959        3.1305704156        9.2639444139
  C        12.5202860985        1.7454488396       10.8196729820
  C         7.7434299619        6.0067166304       12.6311538280
  C        10.0082092323        4.5930122066        5.4960517357
  H         9.1653151281        6.1952815560        6.7946037248
  C        10.7160915833        2.9178306335        4.3673373707
  H        13.4285200847        2.2913728021       10.8422462805
  H        12.8079775693        0.8517352386       10.2442998946
  C        12.1537123622        1.4356702398       12.2785292775
  C         7.8222484419        7.4602302582       12.8627333055
  C         7.4473531676        5.1110802319       13.7607855135
  C        10.3172541714        5.3532999377        4.2139683095
  C        10.7676468280        4.0473323993        3.5744452891
  S        11.1587308575        1.4196284203        3.6100492787
  H        11.4664297335        2.2837286646       12.6255328098
  H        11.7373414351        0.4738114288       12.4065848517
  C        13.3346782545        1.4520434354       13.2936661273
  N         8.1255831294        8.3734667877       11.9262253318
  C         7.5310240482        7.9718272967       14.1424067681
  C         7.2041566986        5.6706176066       15.0040261637
  H         7.3560134708        4.0456308649       13.6572978295
  C        11.6138220962        6.1685102853        4.3115729393
  C         9.1892492192        6.0161994860        3.3682603397
  C        11.2863374052        3.7382406799        2.2796818332
  C        11.3821188145        2.3526204044        2.1449553814
  H        13.9129266467        2.4663978201       13.2973540745
  H        14.0882511593        0.6951052668       12.9964632682
  C        12.8866304153        0.9440458439       14.6235875230
  S         7.9153452169        9.8423668005       12.6049621455
  N         7.4531357828        9.3638908619       14.1208925653
  C         7.1458716646        7.1509938775       15.2374929825
  H         6.9145511979        4.9271831301       15.7331339921
  H        11.3548870292        6.9855012370        4.9849633617
  H        11.8983763274        6.6707366888        3.3961184303
  C        12.8892958006        5.4065980764        4.7898437130
  H         8.6899017052        6.8791364552        3.8956783628
  H         9.5904617644        6.4860268967        2.4665875031
  C         8.0940393295        5.1001826288        3.0069993950
  H        11.3651159539        4.4723154289        1.5412004428
  C        11.7579020673        1.6568798615        0.8225151930
  H        11.9213888804        0.4879928188       14.5960967008
  H        13.4730045684        0.2030365208       15.0465717436
  C        12.8157191896        2.0960402483       15.6382963452
  C         6.8983359549        7.8553867383       16.4949751653
  H        12.6366752873        4.8000905349        5.6302479746
  H        13.3526576560        4.7420927490        4.0760641661
  C        14.1105516271        6.3122268244        5.2320453767
  H         7.5745721776        4.6984931605        3.9051349531
  H         8.5390656778        4.2601819584        2.4115302731
  C         6.9902344183        5.6415309986        2.0564852670
  C        11.8183237296        0.2326051921        0.5850944601
  C        12.0347399790        2.4863475242       -0.3994690398
  H        12.5036172170        3.0882074686       15.1970913566
  H        13.8844162413        2.1686930785       15.8132413747
  C        12.0489904115        1.6525671438       16.9378891337
  H         6.8058350492        8.9023793238       16.4468336036
  C         6.5593897484        7.3842732718       17.7195538223
  H        13.6600247929        7.2455802070        5.5751288800
  H        14.5719366148        6.4816048403        4.2296663953
  C        15.0716117985        5.7408191220        6.2674530414
  H         7.1882393641        6.6542341016        1.9649695149
  H         7.0673257703        5.1524891025        1.0665535000
  C         5.6058530956        5.5166768751        2.5995664808
  N        11.6584779951       -0.7659700507        1.5481894703
  C        12.1277441894       -0.3014502118       -0.6501948869
  C        12.3510512193        1.9171970377       -1.6131020848
  H        11.8852409240        3.5418532303       -0.2649147892
  H        12.2780169818        2.2756833545       17.7912356728
  H        12.1795143485        0.5976276009       17.1167297592
  H        11.0102318121        1.8508865253       16.7346914518
  S         6.2185318375        5.7658991053       18.2420090417
  C         6.4208478880        8.4329528329       18.7925097507
  H        14.9225839240        6.0412361590        7.2929319470
  H        14.8889683892        4.6926408748        6.2183629065
  C        16.4605566731        5.9346169806        5.7901061829
  H         5.5517920451        5.7789502195        3.6110179777
  H         5.2995828118        4.5192122749        2.6196419292
  C         4.6115398946        6.3016945728        1.7459253519
  S        11.7674078953       -2.2760097277        0.9417595785
  N        12.2747240688       -1.7267575784       -0.5653136774
  C        12.4130724449        0.4543176473       -1.8249722872
  H        12.4584992986        2.5174291698       -2.4678106325
  C         6.0361739429        6.4723132922       19.8635391250
  N         6.0799813303        7.8353946829       19.9456953462
  O         6.5951192025        9.6041590321       18.5630563580
  H        16.5317630937        5.4215786260        4.8145047561
  H        16.5049879535        6.9379722517        5.5517073780
  C        17.4841217239        5.4993679534        6.7731066400
  H         4.9422107862        6.1823072592        0.6975957694
  H         3.6032117804        5.7832934573        1.8530393208
  C         4.4662890353        7.7301957708        2.2368187715
  C        12.7295896674       -0.2604932643       -3.0184948916
  S         5.6222719891        5.6014010584       21.3401516081
  C         5.8209556171        8.6452584563       21.0885018563
  H        17.5542245535        6.0685112965        7.7268316187
  H        17.2369143306        4.4611450100        7.1159092335
  C        18.8982383381        5.4847965275        6.0910355761
  H         5.0630215579        7.8586674712        3.1563508117
  H         3.5064931792        7.7651978305        2.6789150594
  C         4.8018610007        8.8071339237        1.1690958552
  H        12.2696560705       -1.2426963496       -3.1754405451
  C        13.4197600124        0.0832360537       -4.1656695127
  H         5.0457768295        8.3305997199       21.7695491246
  H         5.3423732285        9.5444115963       20.6983858342
  C         7.1324046574        8.9298262291       21.8544517453
  H        18.8217165696        5.9619363953        5.0515541918
  H        19.0539312949        4.3533910129        5.9121932534
  C        20.0931355973        6.0642624311        6.9609414065
  H         4.7111138071        9.7125786206        1.7213365244
  H         5.8017846799        8.7522400483        0.7936051213
  C         3.8820010475        8.9110837619       -0.0337824642
  S        14.1288064662        1.6115048256       -4.6282206722
  C        13.5520605871       -0.9595801210       -5.2123985921
  H         7.4747035874        7.9897799263       22.2361938994
  H         6.8705595617        9.5066847217       22.7716505828
  H         7.9233286299        9.4935510667       21.3360637235
  H        20.9690492300        5.4944371664        6.7928403414
  H        20.1866617819        7.1395477215        6.8933386546
  H        19.8847584937        6.0389959543        8.0071195280
  H         3.8936501019        8.0335317590       -0.6968696382
  H         2.8013630748        8.9224135651        0.2586595706
  H         3.9900576073        9.7693261230       -0.6515113294
  C        14.7196637217        0.8827776842       -6.0660293960
  N        14.2737211527       -0.3654297157       -6.2640558297
  O        13.0931925553       -2.0897336898       -5.0882275836
  S        15.3182793697        1.7723936573       -7.4462867144
  C        14.4587415403       -1.0389307024       -7.5369041670
  H        14.8196953350       -2.0130476587       -7.3796585394
  H        15.2091925562       -0.6026648949       -8.0848039996
  C        13.1099598560       -1.1148584976       -8.2971680543
  H        13.1510699231       -0.6363294469       -9.2901311114
  H        12.3569965035       -0.4667562943       -7.8384709214
  H        12.6741191912       -2.0851089957       -8.4057097169
