352
 i =     9800, time =     4900.000, E =       143.5958265655
  H         9.9556135407        4.6280587581       32.0007047114
  C        10.1827488340        5.6187760728       32.0885192418
  H         9.2084505090        6.0874225321       32.0426086109
  C        11.0341158436        5.9176494807       30.8720385588
  C        10.7645491403        5.9472230870       33.5541205559
  C        10.4651797673        5.3863353467       29.6222725747
  H        11.0166059694        7.0026897181       30.7729340304
  H        12.0870774078        5.8727244450       30.8676746074
  H        10.1005438864        6.4298870099       34.2910368522
  H        10.9630324379        4.9781404556       34.1483818883
  H        11.6121278233        6.6523497313       33.4938751959
  C        10.7384480770        6.2575712904       28.4542725568
  H         9.4333926002        5.0966156015       29.7930076614
  H        11.1005024591        4.5192236779       29.4436629178
  C        10.7333306680        5.4111816142       27.1117680444
  H         9.8560724558        6.8949496493       28.3207311530
  H        11.6471952935        6.8060703336       28.5851907225
  C         9.4197595911        4.7850865243       26.8482380517
  H        11.3771682834        4.5213442955       27.2106239418
  H        11.3011416127        5.7999398271       26.2725263314
  C         8.4419005844        5.7942231916       26.2027337236
  H         9.6477465457        4.0931334655       26.0533697814
  H         9.0984000685        4.2920741442       27.7271745627
  C         7.2377843916        5.2523894243       25.4971328554
  H         7.9360656980        6.4569522853       26.8992098828
  H         8.9622998006        6.4708802073       25.5411245191
  C         6.7784689409        3.8757533577       26.0818268837
  C         7.7116289109        4.5793037861       24.1913242261
  C         6.0888755630        6.2716701547       25.3696850159
  C         7.1825338180        2.7958983976       25.3193777996
  C         6.1155464095        3.4581161937       27.2810789014
  C         7.7647868118        3.2303929143       24.1340879689
  C         8.1830460279        5.2156979355       23.0427948856
  H         6.1854692365        7.0001340519       24.5619015267
  H         5.9854078396        6.8232899733       26.2842915144
  C         4.7386256077        5.7407007320       24.8238936500
  S         6.7841991108        1.2985118688       26.0551822767
  C         6.1046494312        2.0748549795       27.4665879937
  H         5.7671490177        4.2124155777       27.9263874443
  C         8.1098071255        2.5962086408       22.9532488269
  H         8.4691315960        6.2692929577       23.0434104878
  C         8.4968344558        4.6177801867       21.8824974333
  H         4.9586449678        5.5191659938       23.8084216322
  H         4.3994581869        4.9202520565       25.3935544011
  C         3.4999067778        6.6330615071       24.5717154594
  C         5.6108156800        1.3583683969       28.7115561714
  C         8.5171655774        3.2626800532       21.8087036436
  H         8.2061968585        1.5340160201       22.9922311671
  C         9.0185009402        5.0000549935       20.6544139220
  H         2.6592806809        6.1055177282       23.9743759657
  H         3.7215450875        7.5706984090       24.1635892602
  C         2.7425745752        7.0011167411       25.7481840373
  C         5.7539381946       -0.0749421472       29.0207599939
  C         5.2282823701        2.1567452014       29.9645728985
  C         8.9213333971        2.5415559149       20.4894852625
  C         9.1771362146        3.9171233856       19.8062611698
  S         9.1567897408        6.5852516597       19.9424952959
  H         2.0312102648        7.7776130947       25.5542465838
  H         3.4063780309        7.4733320881       26.3510166451
  C         1.9423244799        5.8528901652       26.4120018372
  N         6.2057940595       -1.0748543787       28.0921057285
  C         5.5636879831       -0.6123253685       30.2285427657
  C         4.8746469096        1.5336502827       31.1522152532
  H         5.0701456851        3.2301162295       29.8738222139
  C         7.7217596243        1.8218281362       19.7722363567
  C        10.0749431519        1.5457911995       20.7579127325
  C         9.6459476097        4.3586622541       18.5329332117
  C         9.5423511290        5.7715722096       18.4373032710
  H         1.3966893619        5.1802085070       25.6715514552
  H         2.7749869658        5.2716686565       26.7643552270
  C         0.9690955889        6.3034256287       27.5107343172
  S         6.4267071113       -2.5050677525       28.8391352452
  N         5.8890827761       -1.9556502952       30.3112513751
  C         5.1255754409        0.1073767748       31.4345578150
  H         4.4311217100        2.0745432663       31.9592585857
  H         7.3983667602        0.8181968461       20.1102192447
  H         8.2059726850        1.6465951009       18.8656708495
  C         6.3421678078        2.5183897225       19.6839983186
  H        10.2020652969        1.0371447989       19.7859101824
  H         9.7566560341        0.7222305730       21.5029078320
  C        11.3110721599        2.2762214498       21.1422120362
  H         9.9188001772        3.5938570762       17.7779317059
  C         9.7806384185        6.5497040318       17.1679536166
  H         0.0348789183        6.4000125315       27.0810943175
  H         1.2447829353        7.3533238373       27.7477033353
  C         1.0683492806        5.5743141263       28.8778445129
  C         4.9023694262       -0.6013508324       32.6553415550
  H         6.3560652716        3.4401700157       19.1349626050
  H         6.1541279722        2.8823638912       20.7088831063
  C         5.3141290100        1.5147049728       19.2127685670
  H        11.1564693768        2.9041228385       22.0701251576
  H        11.6407867090        3.1064304766       20.4720791958
  C        12.4480024657        1.2612944300       21.3044111565
  C         9.6997392454        7.9592926121       17.0019226199
  C         9.9082839529        5.7753736848       15.8889466315
  H         0.4036850748        4.7633250335       28.6704162857
  H         2.0181932783        4.9538324813       28.8522820999
  C         0.6869044505        6.4038184287       30.2405487867
  H         4.9623782247       -1.6426473369       32.5715739930
  C         4.7337045925       -0.1592013298       33.9625693408
  H         5.0067521744        0.8571839458       20.0454823707
  H         5.7292611069        0.9694171548       18.3552904843
  C         4.0049575075        2.2222504126       18.7895033965
  H        12.3025102621        0.5880692428       22.1442035446
  H        12.3946286195        0.5791444138       20.4597374646
  C        13.9137841845        1.7339467967       21.2323931372
  N         9.4193056011        8.9193348199       17.9838464801
  C         9.9940117574        8.5454037794       15.7558899741
  C        10.2001418695        6.3626939794       14.6541325900
  H         9.5598076482        4.7267646095       16.0352326923
  H         0.1158913813        5.5784092457       30.7269776466
  H         1.6405417485        6.6432225642       30.7578049831
  H         0.1771887692        7.3805429456       30.2061387443
  S         4.4576861736        1.4697837472       34.4748429602
  C         4.6382224550       -1.1941857140       34.9878175808
  H         3.7789011287        3.0503733498       19.5355006275
  H         4.0789506195        2.7333480022       17.9362464644
  C         2.8628415321        1.2595233066       18.5472737268
  H        13.9081440009        2.2952158049       20.3518833670
  H        14.6345043326        0.9139598659       21.0458550841
  C        14.1298058979        2.5587695544       22.4416548099
  S         9.3802013507       10.4418957097       17.2382108500
  N         9.8815449556        9.8972121588       15.7690388829
  C        10.2839048892        7.8172632319       14.5696448638
  H        10.3378116707        5.6770949877       13.8198016693
  C         4.2830225127        0.8097879520       36.0898101421
  N         4.3349268305       -0.5711502951       36.1866630283
  O         4.9773967345       -2.3856452668       34.7776089602
  H         1.9500175588        1.7891429761       18.3484044163
  H         2.7115043045        0.6496400699       19.4612621596
  C         3.1594771315        0.3145026721       17.2925726626
  H        13.3393242639        3.1502633001       22.6553742816
  H        14.2209751781        2.0203494799       23.3319852317
  C        15.4964288278        3.1766107149       22.3548726417
  C        10.6449530021        8.4998510868       13.3886867791
  S         3.6148308765        1.5485593613       37.4671789626
  C         4.2649784681       -1.3036477536       37.4487351848
  H         2.5096860261        0.5080389744       16.4814694522
  H         4.2003676345        0.6108458114       16.9636119350
  C         3.1052907895       -1.0988486278       17.6273640359
  H        15.4150115917        4.1591549764       22.8314982025
  H        15.6709818138        3.2999185956       21.2796487318
  C        16.6095647546        2.3127015959       22.9635911543
  H        10.4574777955        9.5055621627       13.3670816681
  C        11.1257622500        8.1345662643       12.1205239095
  H         3.3334101312       -0.8608900627       37.8539993807
  H         3.9160345168       -2.3398908509       37.5714116922
  C         5.6013739429       -1.1697676460       38.1571621054
  H         3.8186750726       -1.2418500019       18.4549928150
  H         3.6020692239       -1.6017161539       16.7485116741
  C         1.7455351055       -1.6914783440       17.6854057641
  H        16.8614029443        2.3131486432       24.0659670241
  H        16.3704625383        1.2519274718       22.8230991954
  C        17.9348411077        2.6527513440       22.2973710565
  S        11.6994708434        6.5598486359       11.5410268314
  C        11.2225950951        9.2079996521       11.1065066035
  H         5.6007119300       -1.0367145054       39.1796284569
  H         6.1996333047       -2.0095851100       37.8718056934
  H         6.1797033510       -0.3319046647       37.7517845233
  H         1.8827063488       -2.7300817534       17.8718976554
  H         1.1075019011       -1.5338740279       16.8311467928
  H         1.1319392061       -1.3002387942       18.4339830230
  H        18.7791976561        2.2083836063       22.7929366655
  H        18.1830436641        3.7526579120       22.1377459443
  H        17.9538682784        2.3806286531       21.2579221616
  C        12.1195108785        7.4465338839       10.1371612532
  N        11.9129540435        8.8223418706       10.1076984894
  O        10.9034646424       10.3981390538       11.1571685154
  S        12.6495807486        6.5262765450        8.6704164424
  C        11.9928066096        9.5812726998        8.9147664921
  H        12.0562991751       10.7091649267        9.0559953897
  H        12.8818941632        9.2039974299        8.4002113832
  C        10.8343710346        9.2703797713        8.0466979868
  H        10.1056492431       10.0798749464        8.0867622337
  H        11.1574008904        9.2675598155        7.0367325700
  H        10.5222384832        8.2618886802        8.2622855320
  H         4.3379787923        1.8424232857       12.3612304453
  C         3.8265609747        2.7752703785       12.5953583830
  H         4.4988159569        3.6218962556       12.5466767898
  C         2.8343926117        2.8806160968       11.4296573079
  C         3.0948453827        2.7252285567       13.9661360357
  C         3.4523954515        3.0536493001       10.0726561408
  H         2.2051996571        3.8014949584       11.4742299353
  H         2.1703715425        2.0637311640       11.4888882259
  H         2.6436158703        1.7389252899       14.1698665780
  H         2.3176801404        3.4884902419       14.0346645182
  H         3.7366945105        2.8920669127       14.7587302402
  C         4.1554543618        1.7362413179        9.5489296381
  H         2.8551412200        3.4780755604        9.3351644633
  H         4.1745694925        3.8313516312       10.1941061713
  C         5.0579784464        2.0263233181        8.2870242775
  H         3.4059200382        0.9905464670        9.3499137391
  H         4.7149429715        1.3021150073       10.3581178790
  C         6.3304259028        2.7489061542        8.6479226984
  H         4.4781461802        2.6661847254        7.5927911540
  H         5.2612539709        1.1237626106        7.7649743296
  C         7.4688707642        1.9803219425        9.2282426733
  H         6.6111809638        3.3218983176        7.7515592581
  H         6.0977513744        3.5613255678        9.3182635187
  C         8.8682066785        2.7715123899        9.2563359420
  H         7.6554305402        1.1151593809        8.4967170102
  H         7.0677915464        1.5381698374       10.2005626717
  C         8.4752576394        4.1082062224        9.9458631815
  C         9.2528957046        3.5038678204        8.0117998304
  C        10.0357480424        1.9738364690        9.7888575947
  C         8.8540699833        5.2099844312        9.2028236252
  C         7.9561682955        4.5761496753       11.1870975407
  C         9.2771662516        4.8781267070        7.9650615815
  C         9.7660468380        2.8605386852        6.8497665338
  H         9.8021797540        1.4403778079       10.6968766007
  H        10.3198903332        1.1251825122        9.1070717233
  C        11.2576452650        2.8958888014        9.9609293707
  S         8.4778525371        6.7425151624        9.8833287120
  C         7.7486391632        5.9526969465       11.2691619052
  H         7.6754199146        3.8958462327       12.0232602557
  C         9.7653914266        5.5034112413        6.7837993812
  H         9.6582939841        1.7646696301        6.8412808417
  C        10.0248364912        3.4912805869        5.6765034657
  H        11.0910401858        3.9322465194       10.0071540239
  H        11.9009271815        2.8345006100        9.0681015660
  C        12.2306202383        2.5985318692       11.1128293307
  C         7.2548800875        6.6902646134       12.4855686381
  C        10.0057362898        4.8803628904        5.5445249374
  H         9.8451536208        6.6177653337        6.7659828211
  C        10.4896157441        3.0482005586        4.4341915994
  H        13.1847215348        2.9708887115       10.9405981867
  H        12.4661662575        1.5563571431       11.0594826201
  C        11.6514910404        2.9608329468       12.4808182355
  C         7.4198473795        8.1069834698       12.7683055447
  C         6.7824511200        5.8706174588       13.6557889004
  C        10.4941341941        5.5497426002        4.2091054350
  C        10.7444148496        4.1254774194        3.6044763481
  S        10.7549655790        1.6486976111        3.6085166725
  H        12.4932825443        3.3606209728       13.0381516162
  H        10.9800966493        3.8074749343       12.3134916190
  C        11.1394162027        1.8316646805       13.3394676597
  N         7.8640204352        9.1567100469       11.9186428914
  C         7.0810891025        8.5883525511       14.0124969800
  C         6.5298391982        6.4169266740       14.9497621470
  H         6.6186180891        4.8288928674       13.5394306990
  C        11.7993839029        6.3284479714        4.2751531616
  C         9.3239933359        6.3456897677        3.5424287001
  C        11.1163449793        3.8203808947        2.3036720924
  C        11.2296706125        2.4538424559        2.1873083095
  H        11.7142896299        0.9445727006       13.1077632583
  H        10.0432333637        1.7156959557       13.0491637701
  C        11.1488711437        2.0702516075       14.8379237603
  S         7.6579990089       10.5921709909       12.6450807770
  N         7.1491618693        9.9353616193       14.0174333069
  C         6.5935085382        7.8398147795       15.1650281566
  H         6.1196311944        5.7811568570       15.7879331476
  H        11.5972035688        7.1452566292        4.9415103445
  H        12.1312410626        6.6199986129        3.2586221067
  C        13.0416655438        5.6358413425        4.7749761990
  H         8.9230553281        6.8774610525        4.3367989373
  H         9.7437838924        7.1030619250        2.7530476119
  C         8.2894066210        5.4989366249        2.8845917986
  H        11.3054958524        4.5642297163        1.5974943189
  C        11.7502656702        1.7365922082        1.0637316863
  H        11.1047908470        3.1140783494       15.0107459739
  H        10.1776087107        1.7892769572       15.2832824762
  C        12.3943507219        1.5091430962       15.5891145096
  C         6.4009873135        8.5126619968       16.4072234752
  H        12.7774779510        5.0293238414        5.7014305197
  H        13.3405855594        4.8471180074        4.0750784848
  C        14.0790513788        6.7175329386        5.0139664371
  H         8.0137203952        4.6129100104        3.4229443306
  H         8.6144740009        5.1780527748        1.8577372758
  C         7.0523123868        6.3512606695        2.6848484407
  C        11.6736869963        0.2962329403        0.9523026543
  C        12.0074510566        2.4890336439       -0.1201087950
  H        13.2097409606        1.4947192210       14.8029475680
  H        12.2592258250        0.4661499716       15.8722335114
  C        12.6890690316        2.2226629956       16.9391320520
  H         6.4143788965        9.5714859942       16.3757808653
  C         6.2791905158        8.0283184705       17.6553741783
  H        13.5922727087        7.2444532714        5.8390799307
  H        14.0552976770        7.2563387190        4.0595144117
  C        15.4837110555        6.1360850493        5.2093418150
  H         6.5216851623        6.3699592107        3.6415030571
  H         7.2798459022        7.3003631771        2.3160342520
  C         5.9638965133        5.8964380526        1.7591876878
  N        11.5071861757       -0.6870243866        1.9871364114
  C        12.1597541261       -0.3257908548       -0.2056762376
  C        12.4539148340        1.9197945976       -1.3045463179
  H        12.1158248427        3.5800493862       -0.0538526406
  H        13.3680222788        1.6224523967       17.6278646423
  H        11.8069218107        2.2100800500       17.5308031721
  H        13.0512038893        3.2097577078       16.8212979299
  S         5.9471705047        6.3688788864       18.0991768018
  C         6.1123382295        9.0026367850       18.7712248047
  H        15.6335541863        5.1548042274        4.7572378477
  H        16.1330440324        6.7133830524        4.6234410395
  C        15.7507075611        6.0105995976        6.7660273210
  H         5.2743292082        5.3828587599        2.4175530412
  H         6.4367329173        5.2978899010        0.8885172614
  C         5.1523840531        7.0731556416        1.2174515993
  S        11.7235197131       -2.2023201799        1.3566691980
  N        12.1542587739       -1.7353919435       -0.1382880557
  C        12.4968811488        0.4068018117       -1.4166907298
  H        12.5659788612        2.5298195683       -2.1829858514
  C         5.7562767923        7.0290208268       19.7041469814
  N         5.8568694431        8.3626192147       19.8612278207
  O         6.5164092289       10.1883844564       18.7268491373
  H        15.7776341861        7.0451087779        7.0973610657
  H        15.1621063208        5.1096763351        7.2001607526
  C        17.1422445612        5.5206543135        7.0883160291
  H         5.7200578424        7.6774056947        0.5630044707
  H         4.5527769589        6.4185509498        0.6291574771
  C         4.4257364878        7.8720089909        2.3138877250
  C        12.6263451738       -0.2221383496       -2.7042270552
  S         5.3131341367        6.2216326107       21.1827344533
  C         5.7563342828        9.1902456696       21.1642771144
  H        17.3166627266        5.8592966326        8.0718711048
  H        17.1030839698        4.4485774566        7.0350816436
  C        18.2329527481        5.7640901903        6.0785957001
  H         5.1379551878        8.5202579770        2.9470832834
  H         3.8461556281        7.1917001219        2.8264214847
  C         3.3887145828        8.8520117844        1.6844683519
  H        12.2108718640       -1.1879133080       -2.6426871761
  C        13.0686914138        0.1044028294       -3.9650512834
  H         4.9674250946        8.9010501017       21.8184629723
  H         5.3277820405       10.1865040446       20.8183108174
  C         7.1082304941        9.2148572746       21.8643509990
  H        18.2060971942        6.7957251493        5.7018083710
  H        18.1415841409        5.1216631757        5.2305103656
  C        19.6579599415        5.5358259141        6.6179821026
  H         2.7671150983        8.4747022663        0.8242283433
  H         2.6695028184        9.1700372303        2.4765160069
  C         4.1532263171       10.0778669709        1.1357238058
  S        13.5696592953        1.5618506857       -4.5138887009
  C        13.2413826442       -0.9817608642       -4.8961286404
  H         7.0610271395       10.0039171487       22.5943146979
  H         7.9577137922        9.4901580453       21.1761985339
  H         7.3920729051        8.3218793312       22.4938704818
  H        20.3088330140        6.3646222045        6.3396066358
  H        19.7379064550        5.6633861802        7.7090489449
  H        20.0716888248        4.5713662442        6.3447885066
  H         3.5570619919       10.6983922547        0.4635634392
  H         4.6525807670       10.7008876344        1.9384972227
  H         4.9320248526        9.6980570111        0.4645897514
  C        13.9358296316        0.7561542324       -6.0990535175
  N        13.7424016558       -0.5840339312       -6.0623851668
  O        13.0196283875       -2.1874684390       -4.5745266532
  S        14.6716334103        1.3401708493       -7.5264895375
  C        14.1141304584       -1.4726926310       -7.1819729797
  H        14.3124755257       -2.4959953372       -6.8137061770
  H        15.0695804711       -1.0583158619       -7.5169965187
  C        12.8936071927       -1.4816498793       -8.1748059583
  H        12.7272779963       -2.5390337146       -8.5605571485
  H        12.8883514678       -0.7469964661       -9.0524205748
  H        11.9786932459       -1.2661854834       -7.6444310348
