352
 i =   127000, time =    63500.000, E =        99.4639026256
  H        10.2623986504        6.9225416504       30.7694229089
  C        11.2396222375        6.5695683361       31.2515449539
  H        11.7008822106        7.4207055022       31.6201396022
  C        12.2259507917        5.8896176927       30.2781838503
  C        10.8402208794        5.6594245607       32.4185327126
  C        11.4935456335        4.9867251268       29.1718995889
  H        12.7780824412        6.6490248062       29.7761958819
  H        12.9085893298        5.2685759828       30.8877645924
  H        10.3053970607        4.8025540515       32.0104497870
  H        11.7343315832        5.3942198461       32.9740185158
  H        10.1061655966        6.0899211636       33.1524172860
  C        11.7582582215        5.4335527296       27.7314715665
  H        10.4221837175        4.7645180499       29.2825707122
  H        12.0082263942        4.0084677649       29.1220068238
  C        10.5160112308        6.1698227670       27.1497083465
  H        12.5661144010        6.1921162413       27.8530593068
  H        12.1356851260        4.5655192803       27.0849464257
  C         9.4647305499        5.3482477011       26.5360748512
  H        10.9034044646        6.8524720892       26.4498141784
  H        10.0659310261        6.7825482245       27.9193931021
  C         8.3945042836        6.2112820685       25.9664132977
  H         9.8109232149        4.7521621220       25.6263870877
  H         9.0265840405        4.6973231836       27.2552298934
  C         7.2535945111        5.4488341545       25.3233976639
  H         8.0022694842        6.8322276636       26.7718284028
  H         8.7971129818        6.9857094457       25.2653842817
  C         6.9009706816        4.1137927084       26.0339520639
  C         7.7320925134        4.7452440580       24.1032747537
  C         6.0172286531        6.3273741496       25.0657061012
  C         7.3053201462        2.9912834708       25.3139324735
  C         6.4464442028        3.7129519411       27.3341605198
  C         7.7547483739        3.3976753515       24.0683470306
  C         8.2705616276        5.3654174210       23.0018300209
  H         6.2365113228        7.1143999611       24.2924660237
  H         5.7564073124        6.8322871049       25.9830917832
  C         4.7959791855        5.5383584896       24.6049733340
  S         7.0082197553        1.4616560883       26.0980348881
  C         6.4708545158        2.3318231232       27.5484689050
  H         6.1888597882        4.5311700207       27.9833303553
  C         8.1337965610        2.7492585228       22.9329841083
  H         8.1610800512        6.4191237108       23.0878439591
  C         8.7219726580        4.6826623747       21.8738585089
  H         5.0180377999        5.2575302095       23.5468293338
  H         4.6493077201        4.6012376488       25.0918765458
  C         3.5979754913        6.4323993421       24.7651868964
  C         6.0603689660        1.5841369649       28.7661710176
  C         8.6374852557        3.2930644722       21.7811859529
  H         8.1618787291        1.6278630832       23.0507827494
  C         9.2131117740        5.1129536412       20.6640319188
  H         2.8441803114        5.9662818010       24.1380031470
  H         3.8034584292        7.4453505772       24.3702349461
  C         2.9678133267        6.6132473433       26.1637307698
  C         6.1448318665        0.1613097810       29.0146104877
  C         5.7662900711        2.3973649000       29.9779098530
  C         9.2916858059        2.6453159390       20.5775092078
  C         9.6599731343        4.0357487323       19.9155076506
  S         9.4791690293        6.6027408557       19.9340015332
  H         2.0091431702        7.0818476978       25.9751056950
  H         3.4710006170        7.1403249166       26.9395269555
  C         2.4471323761        5.3978257481       26.8553401148
  N         6.4226757137       -0.7324746681       28.0047108950
  C         5.7730986015       -0.3922287472       30.2319197576
  C         5.5165687413        1.8266349648       31.1559925354
  H         5.6181418681        3.4854764027       29.9743270131
  C         8.1420516494        1.9030983812       19.8385190016
  C        10.4840222719        1.7397393044       20.8709320864
  C        10.1775498979        4.4803273978       18.6657019943
  C        10.1222449863        5.7888040208       18.5131876819
  H         2.0091744712        4.8857488333       26.0143757549
  H         3.2361932884        4.7876268599       27.2957044107
  C         1.3889487081        5.6542931062       27.9873323142
  S         6.2613490595       -2.2286290327       28.6058693544
  N         5.9556331859       -1.7937460469       30.1597199961
  C         5.5206377871        0.3507162333       31.3235145940
  H         5.2072903985        2.4660791790       32.0045785091
  H         7.7216963679        1.1827608891       20.4490888651
  H         8.5591659601        1.3421283179       19.0269112921
  C         7.0496367140        2.7834330791       19.3413511041
  H        10.8730319419        1.2991550978       20.0000078772
  H        10.3248951867        0.8608554965       21.5730402174
  C        11.7064359784        2.4851068247       21.4445136611
  H        10.5337661363        3.7155176091       17.9349845321
  C        10.3771089903        6.5332847459       17.1941065018
  H         0.9233771744        4.6800187160       28.1341402058
  H         0.6741663000        6.4515069592       27.7255235679
  C         2.0180554810        6.0827564113       29.3629340128
  C         5.2128320156       -0.3287565833       32.5800809582
  H         7.4332165570        3.5835563817       18.7436464948
  H         6.5512732280        3.1798194121       20.2671817424
  C         6.0211817107        1.9734316258       18.6160860944
  H        11.2039309798        3.2492653383       22.0569330513
  H        12.3594070309        2.9958901878       20.6490878263
  C        12.6570490716        1.5130262142       22.1458633332
  C        10.5161911622        7.9205223335       17.0429730304
  C        10.4739619374        5.7201840398       15.9152747833
  H         2.3038316592        7.1321271885       29.1853006652
  H         1.4309134038        6.0149906869       30.1931485713
  C         3.2749199429        5.3115795775       29.7709354786
  H         5.3034330597       -1.3506300608       32.5393258854
  C         4.9860780526        0.1204835718       33.8804101248
  H         5.6426435977        1.2557295279       19.3388022937
  H         6.6687992462        1.4052332728       17.8748371824
  C         4.8555926635        2.7678053062       18.0730129580
  H        12.1294388445        0.7672392345       22.7997502891
  H        13.1211870373        0.9147149297       21.3719764408
  C        13.6077540572        2.3194380260       22.9612099881
  N        10.3165040501        8.8449271815       18.1042230228
  C        10.6826634977        8.5149914915       15.8021723544
  C        10.8208218883        6.3142349094       14.7133779443
  H        10.3865428117        4.6843808371       15.9912768030
  H         3.2357137768        4.2714051008       29.6325548166
  H         4.0675411908        5.7931951832       29.2026500355
  H         3.5091735612        5.5394633571       30.8376289836
  S         4.7946079449        1.7859202893       34.4084520320
  C         4.6289899876       -0.9492312299       34.7941286005
  H         4.7498915610        3.7712189574       18.5724461966
  H         5.0156875689        3.0053209008       17.0020055699
  C         3.4270681146        2.1160641719       18.1856009914
  H        13.2398832159        2.4829475364       23.9698661403
  H        13.5185823708        3.3785107978       22.6273040880
  C        15.0011337168        1.7439547003       23.0846602044
  S        10.4602398341       10.3441852017       17.4315551030
  N        10.5184667710        9.9269777525       15.8768920236
  C        10.8946676507        7.7930940120       14.5826513995
  H        10.9122495908        5.6899943718       13.8423838264
  C         4.3498850451        1.0185812369       35.9094974287
  N         4.3796018837       -0.3448403263       35.9542366333
  O         4.6224913468       -2.1193506317       34.5257036235
  H         2.7314406621        2.8913060702       17.9343617900
  H         3.2076536380        1.8961113424       19.2349447378
  C         3.4301315142        0.9577063764       17.2304561978
  H        15.0493292419        1.2679551021       23.9896362068
  H        15.1592823732        0.9372734085       22.4455061631
  C        16.0711157163        2.9125485810       23.1601275176
  C        11.2590787976        8.5087997417       13.4166567634
  S         3.9158061303        1.9050316849       37.4028785798
  C         4.1889671090       -1.1421701517       37.1981170395
  H         2.4972134045        1.0294950685       16.7367756380
  H         4.1273539955        0.9088252031       16.3597186981
  C         3.5216628726       -0.3779597538       17.8770589977
  H        16.2206862365        3.3244001671       24.1006170599
  H        15.6166793674        3.7482237502       22.6514939850
  C        17.3779266911        2.5617903609       22.5271193833
  H        11.1779578721        9.5867754167       13.5233843850
  C        11.7324356036        8.1937099178       12.1090377278
  H         3.5250378629       -0.6391998668       37.8844629631
  H         3.7386487911       -2.0925751182       36.9457724545
  C         5.5809262816       -1.3885549144       37.7576645605
  H         4.1904020001       -0.4558294635       18.7413467578
  H         3.8088985275       -1.0499314728       17.0440949641
  C         2.1418400573       -0.9605859002       18.1968219116
  H        17.2553406033        2.0096120901       21.5791777030
  H        17.8909572924        3.4624103335       22.3029098801
  C        18.1671443998        1.7990178195       23.5664642642
  S        12.0604065134        6.6567842771       11.4683749561
  C        11.8620363883        9.2867991180       11.1397292304
  H         6.4332456915       -1.6035514916       37.0469939619
  H         5.9526317254       -0.6425594474       38.4506536479
  H         5.4917268978       -2.3281328366       38.3158311395
  H         1.6186226626       -0.2357685299       18.8825381487
  H         2.1418809623       -1.9552101216       18.7375775816
  H         1.4923022803       -1.0611338869       17.2931880893
  H        17.5840502567        1.2347342810       24.3499185642
  H        18.5466457864        2.5912926711       24.1971303139
  H        18.9852594291        1.3148206626       23.1535922349
  C        12.4328284029        7.5245761946        9.9719602611
  N        12.3273764599        8.8412306675        9.9525715568
  O        11.4665506984       10.4085186757       11.3194864889
  S        12.6486990291        6.7668302248        8.3921826372
  C        12.4760266929        9.6096606494        8.7376703330
  H        12.8194063674       10.6626812238        8.9639790369
  H        13.2063633715        9.1515298635        8.1323385839
  C        11.0769594030        9.6148591058        8.0430114201
  H        10.7652509817        8.5784931531        7.8914603383
  H        10.3139403304        9.9789018972        8.6782702635
  H        10.8878230165       10.1794871456        7.1294554425
  H         3.3718486679        3.9002375825       12.4344436952
  C         3.1123460970        2.8648447873       12.4277109403
  H         2.1059761391        2.8309589307       12.9646441373
  C         2.9728520854        2.3407666611       10.9863192458
  C         4.2334790077        2.1373170218       13.1663064031
  C         4.1430484408        2.8363719663       10.1429097622
  H         2.0893624460        2.6394613176       10.5034873847
  H         3.0476493523        1.2575314257       11.0528956804
  H         3.8301975018        1.6612320912       14.0982548647
  H         5.0613773838        2.8175965642       13.3518417120
  H         4.7052244243        1.3691486203       12.5416648790
  C         4.9070238226        1.6204086524        9.5322025514
  H         3.7907637499        3.5085288695        9.4267661789
  H         4.7789352627        3.3536361797       10.8385578318
  C         5.7411678873        2.0625605053        8.3239105332
  H         4.2458930270        0.8543174429        9.1811278908
  H         5.5630907204        1.2202151647       10.2701749553
  C         6.9230180338        2.9513443100        8.7376193308
  H         5.0648769482        2.5800109376        7.6344614028
  H         6.2210059854        1.2130911864        7.8569132572
  C         8.2369750782        2.1687108185        9.2017730056
  H         7.2443569914        3.3479481655        7.7316935671
  H         6.5934324872        3.7821821783        9.3018371930
  C         9.5172225196        3.0388321364        9.3435787159
  H         8.4453716591        1.5029802939        8.3933096213
  H         8.2259495648        1.6395633775       10.1445150072
  C         9.1217123599        4.4047157922        9.9045006275
  C         9.8279892766        3.6042410083        8.0430811210
  C        10.7637936121        2.3678180738        9.9804007076
  C         9.3130945377        5.4340926707        9.0204913263
  C         8.6593588843        4.8046097446       11.1731011499
  C         9.8521453639        4.9367330128        7.8569460132
  C        10.3685893270        2.8752005135        6.9010280712
  H        10.4195980217        1.9315890325       10.8428438076
  H        11.1717665192        1.5698181316        9.3090993581
  C        11.9974216631        3.2579872603       10.2376902579
  S         8.9914195471        6.9239517615        9.7780257859
  C         8.4063087356        6.1401743844       11.1688738338
  H         8.5928909481        4.1110995042       11.9970400974
  C        10.2143060120        5.5524286545        6.6569503073
  H        10.3214603982        1.7491514611        6.9931933968
  C        10.6514975196        3.4476554532        5.6653017373
  H        11.7223780768        4.2058102537       10.6514916845
  H        12.4228965465        3.3288518648        9.2574917750
  C        12.9758875478        2.7315649074       11.3146527137
  C         8.0062900758        7.0321388485       12.3576915066
  C        10.6119820609        4.8286320519        5.4936472105
  H        10.2477064953        6.6122726242        6.4684847063
  C        11.0309875012        2.9890672536        4.4413572789
  H        13.8329522288        3.4169787598       11.2569163478
  H        13.3171655618        1.7216885151       11.1758541687
  C        12.2660092287        2.7289192613       12.6950147895
  C         8.0284776449        8.4469917787       12.5235556719
  C         7.5463846898        6.2704592937       13.5520991499
  C        11.1480468138        5.4033658628        4.1562001798
  C        11.3706459741        4.0317128026        3.5516160849
  S        11.3107537122        1.4631241167        3.8103769137
  H        11.6219368721        3.5888299405       12.7509050212
  H        11.5418355416        1.8958523368       12.7054076645
  C        13.2761068672        2.5520901177       13.8895450126
  N         8.3462985702        9.3035563524       11.5216009457
  C         7.7273874873        9.0628144772       13.7076543268
  C         7.3688094975        6.9135696790       14.7671966907
  H         7.3611151900        5.1858770307       13.5466323110
  C        12.5151969350        6.0699544207        4.1360799481
  C        10.0740296390        6.2674949358        3.4606901661
  C        11.7880574327        3.4926566235        2.2377515260
  C        11.8020962057        2.0862677798        2.2696672402
  H        14.2429074345        2.9626658584       13.8243920006
  H        13.5677928275        1.5158980788       13.8890306705
  C        12.6479313524        2.7029952458       15.3171425964
  S         8.1909128027       10.8148259398       12.1460212293
  N         7.8757359798       10.4688746668       13.7086812834
  C         7.4712281166        8.3404840079       14.9131578722
  H         7.3221617554        6.3254818843       15.6378479865
  H        12.4898457952        7.1154106679        4.5242711616
  H        12.6602195556        6.2129409766        3.0516296510
  C        13.6813279708        5.1843208530        4.6866773025
  H         9.6543366305        6.9410891785        4.2698398519
  H        10.5727557584        6.8367156349        2.6945635481
  C         8.8062231726        5.4815847525        2.9556809981
  H        11.8855315552        4.1385437886        1.3851670946
  C        11.9780020709        1.1613840000        1.1153883977
  H        12.2514371042        3.6736272015       15.3992555915
  H        11.7675945018        2.0850173190       15.3633005487
  C        13.6094326187        2.2696238829       16.4488025436
  C         7.4166915302        9.0405850641       16.2123509763
  H        13.3594076465        4.5929691476        5.5468998354
  H        13.9462533673        4.3625064219        3.9787027838
  C        14.9282935232        6.0108109542        5.0632697138
  H         8.3838300983        4.9451035066        3.8235378592
  H         9.0894160014        4.7495873793        2.2171584537
  C         7.7934467608        6.3744667378        2.3384808653
  C        12.0423140870       -0.2584507259        1.1196299824
  C        12.1420378987        1.8486152648       -0.2055673261
  H        14.6461794240        2.2411891433       16.1385082955
  H        13.3615928486        1.2501420704       16.6230723689
  C        13.3959337674        3.0024147873       17.7836418101
  H         7.4551136830       10.0803771722       16.1914752701
  C         7.0033599775        8.6115569463       17.4604608766
  H        14.5515605287        6.7997219844        5.7528716334
  H        15.3622120754        6.4811370447        4.1877179049
  C        16.0944265362        5.2599068800        5.6873282387
  H         7.5883782379        7.1572717223        3.0021691389
  H         8.3608467607        6.8005026366        1.5029545254
  C         6.5825801139        5.7031581330        1.7450589231
  N        11.7912496529       -1.0784467510        2.1890290451
  C        12.2002610773       -1.0175658606       -0.0316365730
  C        12.3944854914        1.0797936838       -1.3419686168
  H        12.1139590235        2.9418711951       -0.2421155394
  H        12.4781167841        2.5501011977       18.1492305969
  H        13.1945722981        4.0805842989       17.7417169442
  H        14.1748359729        2.8180643822       18.4831880627
  S         6.6232388687        6.9847192581       17.9659499108
  C         6.9730528792        9.6164429940       18.5677796790
  H        15.7846691130        4.4262360481        6.3093553260
  H        16.6883802377        4.8776855952        4.8436856766
  C        16.9982528441        6.0028410450        6.6353588415
  H         6.1990048146        5.1243788178        2.5758779454
  H         6.9303086396        4.9319237299        1.0442557176
  C         5.5936199465        6.7449940357        1.2001681967
  S        11.6463665852       -2.6170808541        1.7649473400
  N        11.9841961012       -2.3871709319        0.1643493512
  C        12.4724350040       -0.4203621846       -1.2755194376
  H        12.5837952245        1.5555810123       -2.2277853844
  C         6.4297981798        7.6696097722       19.5374000667
  N         6.5169699500        9.0210040164       19.6648973057
  O         7.3089794228       10.7810926040       18.4628232845
  H        17.5163333231        6.7688835109        6.0866052223
  H        16.4600588192        6.4192259501        7.4278615188
  C        18.0117205659        5.1568775213        7.4090386065
  H         6.0352195005        7.3058991058        0.3868735911
  H         4.8324147462        6.0817850071        0.8121036782
  C         4.9345421344        7.7398879234        2.0684043950
  C        12.6919460972       -1.2447265711       -2.4216230081
  S         6.0912826217        6.7566246656       21.0333753267
  C         6.5844590583        9.6429060666       21.0094075489
  H        17.5907250896        4.5081841276        8.2043791353
  H        18.3633014550        4.4564354953        6.7303399490
  C        19.2274524649        5.9769266642        7.8805524367
  H         5.7109445776        8.3836625958        2.5450368565
  H         4.4181874056        7.3526829223        2.8531384124
  C         4.0600326059        8.6284875349        1.3262536376
  H        12.3154326710       -2.2885843463       -2.2880616939
  C        13.1432684203       -1.0604125819       -3.7158396736
  H         5.8761879273        9.1999752965       21.6506076074
  H         6.2178379368       10.6889378230       20.8535871546
  C         8.0509717198        9.6684891397       21.5614386961
  H        19.6345663937        5.4914832621        8.7438035741
  H        18.8663242915        6.9123059161        8.3235356730
  C        20.2519657919        6.2852030597        6.7896617001
  H         3.9300466110        8.2675180716        0.3431756647
  H         3.0584501485        8.5938100654        1.7978586265
  C         4.6311420800       10.1130055489        1.4303713148
  S        13.8208808086        0.3705243008       -4.3536531051
  C        13.1289157662       -2.3087790852       -4.5750014265
  H         8.5666718944        8.7542809372       21.4148387925
  H         7.9611174392        9.9531159309       22.5929142475
  H         8.7719491362       10.3958797236       21.1205289804
  H        19.8396383205        6.7128722561        5.8606289312
  H        21.0090976887        6.9478477664        7.0752290622
  H        20.7402107287        5.3609540618        6.5741284532
  H         4.9746432620       10.3643499175        2.5049133658
  H         5.4965876471       10.1799156709        0.7971564352
  H         3.8085422029       10.8455924506        1.2318535192
  C        14.1731873329       -0.6906543805       -5.7544974195
  N        13.8106555002       -1.9728523523       -5.6606749419
  O        12.7298070921       -3.4494543673       -4.3087309458
  S        14.8991068321       -0.1319718956       -7.2426890514
  C        13.7063687942       -2.8265024521       -6.8288113685
  H        13.3996793499       -3.8424962760       -6.6301297278
  H        14.6456615197       -2.8579102378       -7.3445826930
  C        12.6637689906       -2.1935025373       -7.7384048507
  H        11.8249364852       -2.8252860194       -7.7802264027
  H        13.0956136960       -1.9892677676       -8.6796705454
  H        12.2748417689       -1.2658411604       -7.2965323019
