352
 i =   110300, time =    55150.000, E =        98.4184891228
  H        10.5751629782        4.3612705260       31.8627259677
  C        10.4620180358        5.3653967605       32.2340700827
  H         9.4446736684        5.6295316873       32.1105615764
  C        11.3130810592        6.1973637518       31.2629337335
  C        11.0729679544        5.5014768251       33.6261353749
  C        10.5719509216        6.4703549378       29.9200577445
  H        11.4649823944        7.1128770584       31.7959739242
  H        12.2680736924        5.6861621662       31.0040275324
  H        11.0827174165        6.5544201529       34.0114580268
  H        10.4245304811        4.9997019649       34.2548916611
  H        12.0695146742        5.1066834925       33.7228746091
  C        10.5879665998        5.2269543762       28.9573251862
  H        11.0265747052        7.3213889317       29.4154842353
  H         9.5303020731        6.7958543238       30.1288996430
  C        10.7160045007        5.5962331418       27.4642886376
  H        11.4221061363        4.5439037857       29.2503741950
  H         9.7810763703        4.5619612000       29.0832439408
  C         9.7282957937        4.9704523097       26.5319795872
  H        11.6894779816        5.3217684007       27.1544245352
  H        10.6523592599        6.6909427386       27.4056768086
  C         8.5479916654        5.9290442484       26.3114621228
  H        10.2213558670        4.8577052508       25.5155386971
  H         9.4756773268        4.0027407211       26.8493477986
  C         7.3268958127        5.3262590904       25.4824678740
  H         8.2718570280        6.4670446535       27.3014837641
  H         8.9774257782        6.7582120939       25.6672024460
  C         6.9960366843        3.9770492163       26.1545378157
  C         7.6645617502        4.6680952874       24.2120536964
  C         6.0522192773        6.1988642415       25.4859400132
  C         7.2406128448        2.8449565234       25.3929186116
  C         6.6528927245        3.4963090053       27.4044065831
  C         7.7333569688        3.2821186516       24.1628144329
  C         8.1172618575        5.3400289298       23.0544045042
  H         6.2399765015        7.0774101069       24.8443428390
  H         5.8899185949        6.5927954226       26.4717840716
  C         4.7278212482        5.4691730046       25.0349662301
  S         6.8573724716        1.3513491675       26.0865666766
  C         6.4993634452        2.1405909003       27.5369678997
  H         6.4220532405        4.2377708606       28.2186825326
  C         8.2754533925        2.6650781390       23.0837053670
  H         8.0218163140        6.4207637719       22.9387747812
  C         8.5820168809        4.6970951253       21.9607945863
  H         4.7152932623        5.2420854012       23.9714257352
  H         4.6170600498        4.4203706480       25.4142590239
  C         3.4398964470        6.3408627652       25.2127734225
  C         5.9293131569        1.4778986448       28.7663653624
  C         8.6871088148        3.3290374310       21.8655914188
  H         8.3497928171        1.6270379625       23.0636692545
  C         8.9831291309        5.0968987484       20.6763514165
  H         2.7111195645        5.8998105427       24.4893173751
  H         3.6670500008        7.4219949442       24.8741961010
  C         2.9457879198        6.4148361521       26.6004343102
  C         5.8774706072        0.0568556163       28.9728070539
  C         5.4193510797        2.3050711935       29.9063049460
  C         9.0758787323        2.6932663396       20.5889923601
  C         9.2992992527        4.0585364942       19.8814792830
  S         9.1813419119        6.6401288855       20.0370256838
  H         2.1665975398        7.1404859993       26.6778439102
  H         3.7077660263        6.8765672234       27.1944544590
  C         2.6340878649        5.0032891904       27.0718004386
  N         6.2771172227       -0.9589308369       28.0813688791
  C         5.5916912971       -0.4932703298       30.2350252192
  C         4.9601440419        1.7567228951       31.1098552206
  H         5.3661923368        3.3726265060       29.8607779767
  C         7.9085805750        2.0505819425       19.7177256071
  C        10.2953497673        1.8080903663       20.7136200499
  C         9.6105070369        4.5024233617       18.5975551475
  C         9.7584824465        5.8539758192       18.5295549493
  H         2.6121081017        4.2251884298       26.2991314255
  H         3.6142536442        4.7895969472       27.5062685046
  C         1.4046419954        5.1317168142       28.0242542522
  S         6.2791203802       -2.4004215258       28.8273817898
  N         5.7195638616       -1.8455743777       30.2673901214
  C         5.1112939277        0.2621779280       31.3364065701
  H         4.4493778440        2.3637869724       31.8372403957
  H         7.6748207769        1.1092355289       20.3047594015
  H         8.1702354011        1.7047225469       18.7709087908
  C         6.7032627585        2.8829265059       19.4582460510
  H        10.4110607141        1.2114310326       19.7906190951
  H        10.0380359054        1.0885013707       21.4702846748
  C        11.4837256209        2.5489039297       21.1858634108
  H         9.6321111947        3.7803876461       17.8131374487
  C         9.7889424971        6.5646847508       17.2489153288
  H         1.0515956242        4.0834110943       28.2750360472
  H         0.6214148251        5.6897868567       27.5251556082
  C         1.5783952355        5.9041151206       29.3876928067
  C         4.9481903190       -0.4473540970       32.5308704946
  H         6.7102157931        3.5359197643       18.5784912253
  H         6.5095831560        3.5144801889       20.2849030347
  C         5.5972177047        1.9876104630       19.0242261285
  H        11.1461473780        3.1813802995       22.0258944804
  H        12.0024796671        2.9851487084       20.3237042043
  C        12.5735934453        1.6910335253       21.8660838214
  C         9.7869136649        7.9533604737       17.1162385655
  C         9.9518261022        5.8456735597       15.9593572288
  H         1.5468568425        6.9203624613       29.0179702109
  H         0.7265142643        5.7212367188       30.0785875049
  C         2.9273568754        5.7155367622       29.9892067577
  H         4.7261485122       -1.5032124409       32.4398347236
  C         4.6405167776       -0.0072336872       33.8147390257
  H         5.0517342882        1.5478621985       19.8831456648
  H         6.1283711520        1.2269891014       18.4922336851
  C         4.5395533993        2.6043849687       18.0599935951
  H        12.0855601017        1.2182788064       22.7300924968
  H        12.8058116183        0.9744480483       21.0932826881
  C        13.7686108428        2.5443209547       22.3247304727
  N         9.6699865693        8.8055728549       18.1884810351
  C        10.1225830175        8.6319876237       15.9826952336
  C        10.2640765614        6.5844245563       14.8032623542
  H         9.8004961931        4.7676035030       15.9763396234
  H         2.9985345799        5.6741664456       31.1025113903
  H         3.3996094852        4.7162646155       29.8173782943
  H         3.7085602701        6.2574041352       29.4654142940
  S         4.4622511728        1.6559295819       34.2322673235
  C         4.4883914637       -0.9753738157       34.8525250173
  H         4.4866003006        3.6721618323       18.1498844050
  H         5.0716070096        2.4976161136       17.1115815830
  C         3.1956010055        1.9369181268       18.0054780797
  H        13.7147847965        2.8458197434       23.4377952087
  H        13.8047242056        3.3720398806       21.6326245310
  C        15.0991126689        1.8712148909       22.2402138857
  S         9.8136601193       10.3518075613       17.8016150315
  N        10.2540058950        9.9960031364       16.2019970190
  C        10.4407987634        8.0163163221       14.7615548481
  H        10.3210888261        5.9999265932       13.8625777855
  C         4.1938275453        1.0473762060       35.8559919277
  N         4.1731462548       -0.3195776313       35.9805493955
  O         4.7162524886       -2.1921377606       34.7047563735
  H         2.5353002810        2.2788620924       17.2239013783
  H         2.7166234206        2.2757686278       18.8687702961
  C         3.5123040758        0.4620457900       17.8597195932
  H        15.1005785735        1.0108259946       22.9410659695
  H        15.1100523656        1.4010362070       21.2007913359
  C        16.1966501764        2.8993036511       22.3355900324
  C        10.7613954400        8.7647968120       13.6038793370
  S         3.7752204794        1.9416459924       37.3112790388
  C         4.2514057092       -1.0663876488       37.2208549535
  H         4.1405199951        0.3785340692       17.0255287527
  H         3.9111746899       -0.0349947938       18.7289176753
  C         2.2544234609       -0.3334956034       17.3980353338
  H        15.8943889270        3.5621017776       23.1615202659
  H        16.2399759380        3.4682649719       21.4012964520
  C        17.5829441334        2.2129103378       22.4789785405
  H        10.4966267176        9.8292231674       13.7146552586
  C        11.2032734229        8.4197658754       12.3559066445
  H         3.6067104385       -0.8301573620       38.0121451934
  H         4.0373954934       -2.1515392262       37.1788781105
  C         5.7306367314       -1.0054769197       37.7469618693
  H         2.0573500636       -0.2363367818       16.3082347422
  H         1.4164500811       -0.0236699319       18.0923358249
  C         2.3939916431       -1.8099966514       17.6561462090
  H        17.7713716089        1.3772667623       21.7591850466
  H        18.3870803440        2.9259324122       22.2262940026
  C        17.7387604892        1.7152420383       23.9550079545
  S        11.6399328783        6.8254571555       11.8240797775
  C        11.5103587520        9.5723387839       11.4400722196
  H         5.8842585105       -1.7543801324       38.5118660012
  H         6.4271961413       -1.1685220100       36.9792737559
  H         5.9030347172       -0.0304035839       38.2663127947
  H         2.2515896894       -2.1185859404       18.7285023967
  H         3.2752728656       -2.2333538164       17.1546224625
  H         1.5010099014       -2.3299565155       17.2595460218
  H        18.6597690890        1.1510654090       24.0692328211
  H        16.9662702589        1.0799920378       24.2775316970
  H        17.6922635041        2.5423505788       24.6475697607
  C        12.1874852366        7.7519138787       10.3626357137
  N        12.1185587881        9.1182871908       10.3488450102
  O        11.2881674861       10.7100443591       11.7314783980
  S        12.8945845813        7.0342522911        8.9190808411
  C        12.5085033946        9.9496856823        9.1836081635
  H        12.7796730339       10.9121108665        9.5179841701
  H        13.3200015822        9.5548736694        8.5666474878
  C        11.3132732688       10.0142268975        8.1999534220
  H        10.3380485109        9.8683538932        8.7384193521
  H        11.2478311538       10.9481977144        7.6902556444
  H        11.3517657190        9.2335996670        7.4295118915
  H         3.5668902857        4.0183821935       12.3668314834
  C         3.4598884658        2.9296766185       12.5009450481
  H         2.4245270770        2.7779338503       12.1699308650
  C         4.3640393295        2.0967141050       11.5414795382
  C         3.5588478648        2.5404977042       14.0164508329
  C         3.8323330517        2.2300966215       10.1453656192
  H         4.3707973016        1.0635949718       11.8729220113
  H         5.3715489549        2.4823197735       11.5198665313
  H         3.5930887058        1.4581544198       14.1505906825
  H         2.7608517390        2.9900388507       14.5569851568
  H         4.4226808370        3.0173891743       14.4661260462
  C         4.5831694758        1.2929712623        9.3015236093
  H         2.7553891473        1.9760593012       10.1583909683
  H         3.9416826266        3.2856586687        9.8742170813
  C         5.4340838830        1.8896798287        8.1644796912
  H         3.8805987413        0.5875688765        8.8711419333
  H         5.3115400449        0.7861187637        9.8479550988
  C         6.4285782159        2.9004228069        8.6936813777
  H         4.8466755985        2.4894319108        7.5313054397
  H         5.8783900270        1.1719481280        7.5439758979
  C         7.7322937217        2.1703644491        9.2635921581
  H         6.6662406031        3.4170182251        7.7413129109
  H         5.9992865986        3.5301848409        9.3907711444
  C         8.9635676837        3.1411142518        9.5449255118
  H         8.0632103084        1.5648469413        8.4797532011
  H         7.4645666598        1.4667387597       10.0334503969
  C         8.5454152876        4.4520351426       10.0757653064
  C         9.4536993243        3.8085027208        8.2702696395
  C        10.0689908027        2.5446401301       10.3733310431
  C         8.7460766946        5.5200449013        9.2790190090
  C         7.9343895531        4.9101857096       11.2672527871
  C         9.2807452032        5.1305698712        8.0950022843
  C         9.9593681360        3.1562223537        7.1564530275
  H         9.6268054059        2.0501353022       11.2107634500
  H        10.4183902308        1.6613573562        9.6979338467
  C        11.2949597120        3.4257120714       10.8682241290
  S         8.1909278181        7.0317239949        9.8580012648
  C         7.8373142046        6.2518371662       11.3493273019
  H         7.8572023706        4.2154944858       12.1073770618
  C         9.6796445534        5.7033771828        6.9301794000
  H         9.9566181341        2.0854040118        7.2873973500
  C        10.2944258569        3.7339177036        5.9494325653
  H        10.8385491412        4.2682239659       11.3096893720
  H        11.8491558284        3.8410853424       10.0269081267
  C        12.3014262430        2.8807258714       11.9787471904
  C         7.2794528456        6.9115172644       12.5857976111
  C        10.1682551676        5.0920212297        5.7889057641
  H         9.6691791522        6.7718651499        6.9080643019
  C        10.5826515980        3.2862811880        4.6419523068
  H        13.1829327271        3.4770008239       12.0180754062
  H        12.6876918838        1.8640182830       11.6349059036
  C        11.6694597402        2.6401820282       13.3597319330
  C         7.4857445010        8.2821546407       12.8336608465
  C         6.6084612561        6.0537614702       13.6610170407
  C        10.5851144768        5.6815912769        4.3995819489
  C        10.7904155419        4.2951912014        3.7531386314
  S        10.7470808660        1.7212347935        3.9675055322
  H        11.1643993143        3.5128772535       13.5555353286
  H        10.9244945919        1.9038889511       13.1704092302
  C        12.5780270591        2.0856465945       14.4582639956
  N         7.9042227354        9.2444711996       11.9468615839
  C         7.0820943543        8.8617130037       14.0116019016
  C         6.4242942743        6.6082633618       14.9328489822
  H         6.3545548925        5.0738084233       13.4226931162
  C        11.9586243143        6.4074713290        4.6034734227
  C         9.5930035719        6.5773638760        3.5563626114
  C        10.9581891468        3.8232106401        2.3997480511
  C        11.1558098673        2.4441896339        2.3640849163
  H        13.4228874845        2.7651151818       14.6322086822
  H        13.1345968190        1.2091651082       14.1162035403
  C        11.8922290845        2.1603996031       15.8243964957
  S         8.0190751065       10.6955508517       12.6756103964
  N         7.4004682484       10.1889419840       14.0852847651
  C         6.6246277205        8.0545859025       15.0961524805
  H         5.9170725444        5.9527399518       15.6074784715
  H        11.8856066424        7.3353016658        5.1789877000
  H        12.3678094522        6.6947697633        3.6160947810
  C        13.0380194366        5.5311452143        5.3480097603
  H         9.2998091921        7.5222674560        4.1145617107
  H        10.0119155950        6.9454698596        2.6343568282
  C         8.3072411778        5.9221985066        3.1587103176
  H        10.9749028775        4.4624515534        1.5601174159
  C        11.5488690853        1.7551400690        1.1230733519
  H        11.2351454950        3.0505919691       15.8352140283
  H        11.1293180865        1.3522956944       15.9359981504
  C        12.8330271713        1.9071230036       16.9964704401
  C         6.4022052721        8.6997617534       16.3572607591
  H        12.7777388703        4.9717196351        6.2153305468
  H        13.3741432153        4.7837287316        4.6049595672
  C        14.3466509373        6.3298021452        5.6139069216
  H         7.9593767188        5.2708162277        3.9584122087
  H         8.5754467616        5.2914709525        2.3316177251
  C         7.2175550921        6.8720252487        2.6645492598
  C        11.6785510789        0.3625251584        1.0464826079
  C        11.8649165768        2.5793798074       -0.1216247059
  H        13.7132249968        1.2752787013       16.7282664866
  H        12.3228673400        1.4470935658       17.8226675210
  C        13.3350497521        3.2208911598       17.5491190935
  H         6.2430809746        9.7778222345       16.2304184480
  C         6.2986696386        8.3353195718       17.6854586007
  H        14.2321135982        7.1218062580        6.3641537959
  H        14.6112358173        6.8928106866        4.6883097331
  C        15.4832534057        5.3343868949        6.0342166395
  H         6.8520404176        7.3849379197        3.5263228090
  H         7.5211230233        7.6989891367        2.0372217305
  C         5.9475008980        6.1508448630        2.1294522419
  N        11.2786943497       -0.5127843337        2.1213839833
  C        12.0947504225       -0.3259337636       -0.0766480110
  C        12.2619646243        1.8630691343       -1.2448521494
  H        11.9869766513        3.6460112062       -0.1213327367
  H        12.5892283694        3.9635803452       17.5124544912
  H        14.2340099834        3.5029398021       17.0240276358
  H        13.5801425714        3.0004161003       18.5827131590
  S         6.3674876230        6.6768910757       18.2260775554
  C         6.0388178357        9.3429991339       18.7243748035
  H        15.3268653424        4.7709123927        7.0249846301
  H        15.7887246649        4.6613678440        5.1728661981
  C        16.8740344570        5.9739721253        6.2184669245
  H         5.7310583069        5.4138768212        2.8672956654
  H         6.2937394675        5.5877786851        1.2210544066
  C         4.7115234464        7.1176399525        1.8868152661
  S        11.4947690699       -2.0367886849        1.6332952281
  N        12.1265348407       -1.6896889584        0.1674323982
  C        12.4284499304        0.3706867318       -1.2585795464
  H        12.5971887745        2.3527102315       -2.1678677412
  C         6.0205083231        7.2866327137       19.8013357035
  N         5.8915021444        8.6276261551       19.8544810498
  O         6.0245068301       10.5767937358       18.5497586291
  H        17.4062306660        5.7615945175        5.3002556888
  H        16.7852642591        7.0316861320        6.3465654004
  C        17.7427105048        5.3931296340        7.3150577438
  H         3.9675209155        6.3486433849        1.6541622460
  H         4.3616416763        7.5078121763        2.8159934178
  C         4.8444147232        8.0638258406        0.6405918031
  C        12.8409772307       -0.4576938562       -2.4087492537
  S         5.8080314986        6.3006597476       21.2174471993
  C         5.8559700607        9.3905345109       21.0731440010
  H        17.1601105239        5.4172961902        8.2431061674
  H        18.0418674018        4.3436760367        7.0613340581
  C        18.9299570898        6.2734866512        7.5901127259
  H         4.8710806486        7.4513318570       -0.3165559261
  H         5.8375868999        8.5038881092        0.7243144155
  C         3.7345159831        9.1695304982        0.6739097106
  H        12.7842133404       -1.5468985489       -2.3332249335
  C        13.3848402434       -0.1972461605       -3.6713137998
  H         5.3904558999        8.9095692178       21.8495343330
  H         5.3942314145       10.4008946526       20.8970755980
  C         7.3184379074        9.6991511963       21.4878609826
  H        19.3064986381        6.0534945098        8.5650854365
  H        18.5085117603        7.2727046928        7.5997714290
  C        20.0935195372        6.2136762513        6.5316704889
  H         3.5620710240        9.5963081627       -0.3300463919
  H         2.8773152380        8.6156958434        0.9386997500
  C         4.0058591603       10.3670243831        1.4948753086
  S        14.0694956141        1.2979454181       -4.2381465522
  C        13.3967547725       -1.2615820371       -4.7260827714
  H         8.0721281758        9.1067310323       20.9468151933
  H         7.4573259022        9.4505000391       22.5607975487
  H         7.7014515188       10.6965003990       21.2530513802
  H        19.6586328696        6.4387313633        5.5912007536
  H        20.8120955799        7.0099444620        6.8245336815
  H        20.6339410931        5.2261057721        6.4466923251
  H         5.0261235448       10.7927293168        1.4337949664
  H         3.3094118604       11.0889742508        1.1090459397
  H         3.8136609636       10.1146701862        2.5069987738
  C        14.3355297289        0.5445145073       -5.7336590436
  N        14.1142725625       -0.7809405495       -5.7501078399
  O        13.0397350947       -2.3960768200       -4.5887734934
  S        14.9104523827        1.3116259945       -7.2055330621
  C        14.2769553563       -1.6738515965       -6.9404349766
  H        14.3941162083       -2.7196676375       -6.6765029438
  H        15.3167303131       -1.4241596358       -7.3080081616
  C        13.0887559205       -1.3481259406       -7.9525002815
  H        13.3922239389       -1.0895166661       -8.9331698955
  H        12.4330955818       -0.6702060637       -7.4734045267
  H        12.4920161864       -2.2083866811       -8.1289480169
