352
 i =    29200, time =    14600.000, E =       100.7043331239
  H        10.2894856048        4.0441476285       31.9593946389
  C        10.4593949499        5.0019408895       32.4538727887
  H         9.5070831910        5.2575492327       32.8690373975
  C        10.6653401372        6.0434679342       31.3384112316
  C        11.5186300574        4.9488493631       33.6053230024
  C        11.3334875109        5.3785637130       30.1428054624
  H         9.6851299733        6.5666927908       31.1705886339
  H        11.3851311613        6.7542964083       31.7836817439
  H        11.0398527692        4.3540460480       34.4580473681
  H        12.4351255410        4.4973673913       33.3203817105
  H        11.8290267336        5.9828917210       33.8839319825
  C        10.3409402310        4.8301533793       29.1749223951
  H        12.0018480504        4.6220102094       30.4517667917
  H        12.0303016034        6.0164148176       29.6734814990
  C        10.7597721058        5.0132267169       27.7253377047
  H        10.1133399612        3.7685024362       29.3656321663
  H         9.4128637247        5.4086424051       29.2374701389
  C         9.6592176095        4.4786470572       26.8926530046
  H        11.6837384048        4.6055657389       27.4636119035
  H        10.7881277101        6.0315728674       27.4524885896
  C         8.5633903604        5.4075823432       26.4335833420
  H        10.1924312379        4.0324951365       25.9973910614
  H         9.2967903284        3.6645992590       27.4399776642
  C         7.3842401769        4.8086169287       25.6757550411
  H         8.1311977316        5.8976280975       27.2835583696
  H         8.8773853956        6.2165090993       25.8392426275
  C         6.9585838481        3.5211469198       26.3270112360
  C         7.8037442016        4.1480223848       24.3967313613
  C         6.1302191921        5.7035989210       25.4690809983
  C         7.1205287972        2.3827756793       25.5195518053
  C         6.3523837397        3.0870394471       27.5043741069
  C         7.6366765671        2.8039710293       24.2780108444
  C         8.2192448228        4.7894322187       23.1700189637
  H         6.3277526554        6.3382354695       24.5600249707
  H         5.8858534187        6.3344996487       26.3014881599
  C         4.8425955341        4.9222890950       25.2721005747
  S         6.9164226869        0.8438443375       26.3397087945
  C         6.3127568210        1.7030918373       27.6643977525
  H         6.2373500124        3.9191295579       28.1827187600
  C         8.0586784211        2.1246323780       23.1691338295
  H         8.1225520413        5.8610692197       23.0939951591
  C         8.5923366286        4.0781488779       22.0592635428
  H         5.0850944417        4.2825091823       24.4372448607
  H         4.3871154493        4.3243827762       26.1597609309
  C         3.6853422720        5.7944311137       24.7881474971
  C         5.7932348692        1.0157211053       28.9348129830
  C         8.5272640139        2.7388770930       21.9842061177
  H         7.9664499782        1.0397783631       23.1340829524
  C         9.0714816284        4.4164026034       20.7953316073
  H         3.0725541018        5.1799976872       24.1157327101
  H         4.0240927987        6.6238358823       24.2959457546
  C         2.7161333306        6.1289242466       25.9025153007
  C         5.8052341596       -0.3639646941       29.2640221397
  C         5.4703805195        1.8575566331       30.1164080446
  C         8.9449474358        1.9198259079       20.7042834416
  C         9.2441588896        3.2823597686       19.9788851016
  S         9.2476056486        5.9923715785       20.0459666893
  H         2.2954312811        7.0934661945       25.6464548614
  H         3.2423634271        6.3300498310       26.8497656787
  C         1.6944965833        5.0294206546       26.1587744143
  N         6.0519147009       -1.3457499325       28.2836838228
  C         5.6113065702       -0.9618493419       30.5100173467
  C         5.2940026406        1.3387190315       31.4271492464
  H         5.2725288253        2.9548790351       30.0399427723
  C         7.8544659591        1.3050828754       19.9069870371
  C        10.1334243089        1.0086024626       20.9719590095
  C         9.4466125274        3.7394113639       18.6871927161
  C         9.5906639034        5.1134090329       18.5668374743
  H         1.1554096459        4.7764676701       25.2091363476
  H         2.2421697934        4.1684612766       26.4664211692
  C         0.6973194407        5.4273581935       27.2618196612
  S         5.7149580573       -2.8824934462       28.9169016242
  N         5.5974137630       -2.3494446743       30.4816951024
  C         5.2960738757       -0.1232098302       31.6316321061
  H         5.0908975468        2.0840653335       32.1721230562
  H         7.7691598283        0.1911485985       20.1324286420
  H         8.3015158663        1.3926995097       18.9176120892
  C         6.4561101587        2.0066495626       19.8660745998
  H        10.1659235160        0.2105695860       20.3408039559
  H         9.8873704461        0.4330678839       21.8948325283
  C        11.5296613383        1.6180147878       21.1901454242
  H         9.6437328383        3.0521375248       17.8381674067
  C         9.8564222020        5.8306915422       17.2644709091
  H         0.0798876362        4.5396012609       27.4728875145
  H         0.1334906368        6.3144379488       27.0537984031
  C         1.5725836421        5.8040665665       28.4603579388
  C         5.1145626141       -0.7716857279       32.8615556446
  H         6.5292916267        3.0375045622       20.1402432182
  H         5.8685291434        1.6062597355       20.6253024523
  C         5.6649893663        1.7390446164       18.5922165570
  H        11.4358632749        2.1379488118       22.1633319100
  H        11.6648464226        2.3980627277       20.4792985460
  C        12.6794104610        0.5824388614       21.1737655825
  C        10.0913163017        7.2228290450       17.1951427569
  C         9.8701471185        5.0276011856       15.9977352487
  H         2.4661655336        5.1079609426       28.3489731448
  H         1.9218909493        6.8540287871       28.3863717760
  C         0.8727774770        5.5523099292       29.7995401571
  H         5.2548116098       -1.8064151847       32.7355027748
  C         4.7424215824       -0.2737073752       34.1027994504
  H         5.7821990119        0.7812181133       18.1136368336
  H         6.1101010476        2.4355141111       17.9159313773
  C         4.1963130478        2.0935888481       18.7413659055
  H        12.5793407710       -0.1737620252       21.9952569092
  H        12.8112985244       -0.1189586918       20.3593887940
  C        14.0285804901        1.2693499202       21.4875038109
  N         9.9718411617        8.1548390243       18.1934299062
  C        10.4882827709        7.7886957640       16.0148907085
  C        10.2645254032        5.6522437013       14.7908719289
  H         9.3747777722        4.0221784213       15.9184004227
  H         0.1635473012        4.6882549388       29.8133863864
  H         1.6013154313        5.3539499022       30.5563356091
  H         0.3528619568        6.4425519366       29.9922156166
  S         4.3408898905        1.3628481504       34.5718506210
  C         4.6066748177       -1.2861827605       35.1365749349
  H         4.1507387845        2.8140585717       19.5171020218
  H         3.8780872498        2.5970707613       17.7785291464
  C         3.2088209235        0.8596947515       19.0233683959
  H        13.8239810683        2.2136887031       21.0514002455
  H        14.9448673356        0.8164721095       21.0282233714
  C        14.3331291888        1.4342228956       22.9485417444
  S        10.2785425970        9.6231245215       17.5769076569
  N        10.7366994279        9.1562317896       16.1160322834
  C        10.5930615042        7.1148019005       14.7906664018
  H        10.2744384751        5.0059701468       13.8915914634
  C         3.9813898680        0.6548478075       36.1173227756
  N         4.2251229904       -0.6928886556       36.2446664276
  O         5.0226797504       -2.4628071839       35.0222364833
  H         2.3104786982        1.3159319753       19.4745085717
  H         3.5946843943        0.1734544968       19.8612996107
  C         2.9421865904       -0.0183805723       17.7415813735
  H        13.5426528573        2.0037544021       23.4528084776
  H        14.2728943549        0.4798086300       23.4463396562
  C        15.6523402063        2.1299883547       23.2029495709
  C        10.9143281430        7.8438443522       13.6533031273
  S         3.6469799046        1.5141991319       37.5941579068
  C         4.1612929803       -1.4821384880       37.4856838143
  H         2.3420941225        0.6533151322       17.1269207755
  H         3.8530010382       -0.2463385530       17.1374610949
  C         2.2516403915       -1.3645380276       17.9991652095
  H        15.6946808777        2.8172747260       24.0090303567
  H        15.8899191947        2.7434492015       22.2894860007
  C        16.8708238172        1.1977152150       23.4734488125
  H        10.5054396484        8.8294713754       13.6170421645
  C        11.3915326207        7.5751093544       12.3841003350
  H         3.2992442057       -1.0622142615       38.1008343405
  H         3.9057390352       -2.5521450435       37.4790367564
  C         5.5524542136       -1.3124991489       38.2414836463
  H         1.2130068183       -1.2311516029       18.1232384898
  H         2.6293254752       -1.7643325472       18.9358965352
  C         2.6087844141       -2.3941073963       16.9825133837
  H        16.7456610088        0.8007775059       24.4882504065
  H        16.8390745713        0.2492550374       22.8854764320
  C        18.2026454344        1.8612688179       23.1997828502
  S        12.0727733292        6.1036180467       11.8064284863
  C        11.4117626879        8.7298831647       11.3910326358
  H         5.3475300613       -0.8963212085       39.2858181615
  H         6.0586331432       -2.3521075169       38.3102557629
  H         6.2355905385       -0.7358659798       37.6283854729
  H         2.3056255182       -2.0125788762       16.0020538659
  H         2.0225187419       -3.3000151804       17.1171140139
  H         3.6041195967       -2.8084854652       17.0360759611
  H        18.4937104379        1.8559932921       22.1801044152
  H        18.9372211393        1.4396513718       23.9284549273
  H        18.1504378169        2.9014402840       23.4384063889
  C        12.0950471845        6.9055988679       10.2325477925
  N        12.0121995184        8.2288990072       10.2742714858
  O        11.0558661910        9.8861939775       11.6447308110
  S        12.7943802589        6.1284306443        8.7934385652
  C        12.1680245856        9.1158348468        9.1246424093
  H        12.4436015647       10.1065988450        9.4483709524
  H        12.9278240880        8.8337814402        8.4859289896
  C        10.8907678865        9.1577276673        8.3458794390
  H        10.9265360851        9.7756363886        7.4327652780
  H        10.4784661923        8.1510072748        8.0770835163
  H        10.1428381316        9.6022049600        9.0377063875
  H         5.1261045459        1.0458272911       13.1742118830
  C         4.6339951599        2.0536528542       13.2641409467
  H         5.2513256232        2.9725192495       13.1973118141
  C         3.7149303722        2.2400477287       12.1181275438
  C         3.8698649461        2.0271811934       14.5747312166
  C         4.2828221114        2.4175994264       10.7216179789
  H         3.0869684893        3.1194002922       12.2786782291
  H         3.0402695601        1.3900976976       12.0852547478
  H         3.1630945515        1.2022503769       14.4096244169
  H         3.3994563678        2.9634855211       14.8379130803
  H         4.4800855767        1.9828203242       15.4473540903
  C         4.9319582221        1.1999693213       10.1016125840
  H         3.5708161422        2.8381527518       10.0347177842
  H         4.9684404979        3.1850554149       10.8840777207
  C         5.4582061609        1.4421229981        8.7059022801
  H         4.1538121086        0.4573432657       10.2050970249
  H         5.8569998679        0.9472231258       10.6126945129
  C         6.6717179008        2.3369855961        8.7523682978
  H         4.7200183532        1.8602443133        8.0493545543
  H         5.8400958737        0.4798183194        8.4272992433
  C         8.0579164738        1.6224978636        9.0991878402
  H         6.7347219474        2.8512478632        7.8648969064
  H         6.5165161367        3.0728247697        9.4521621418
  C         9.2492067845        2.5500830021        9.3838629608
  H         8.3535093117        0.9250105323        8.3091995394
  H         7.8651939153        0.9952417939        9.9051068747
  C         8.7621430900        3.8076941373       10.0811222490
  C         9.6491068930        3.3315252210        8.1990544311
  C        10.4726822849        1.8806016327       10.0802963452
  C         8.9336566838        4.9506985215        9.2954886047
  C         8.1843107799        4.1474763956       11.3209684985
  C         9.4595860237        4.6697062011        8.0708289953
  C        10.1487049921        2.7430905979        7.0500689507
  H        10.0751108069        1.3637408836       10.9322362023
  H        10.7601536419        1.1763800245        9.3478541299
  C        11.6473424585        2.8047935675       10.4873765267
  S         8.4793338162        6.4962174803       10.0244515338
  C         8.0207741818        5.5161868124       11.4063094285
  H         8.0598941003        3.4369784345       12.1192345257
  C         9.8837134820        5.3283216675        6.9643387947
  H        10.2385741938        1.7217801325        7.0770762144
  C        10.4662116072        3.3836298601        5.8897227199
  H        11.2587333598        3.5752201239       11.1137310478
  H        12.0597718255        3.2429010823        9.5815265364
  C        12.6802146025        1.9912017557       11.2424761793
  C         7.7017574850        6.2409612362       12.7194720813
  C        10.2874556065        4.7219368709        5.8371336439
  H         9.7036644351        6.3906758778        6.7837591542
  C        10.9018205866        3.0198946476        4.6198757247
  H        13.6458634202        2.5686613295       11.2593044596
  H        12.8710322149        1.0894839127       10.7501071975
  C        12.3861102601        1.8620466858       12.6965690915
  C         7.6630524382        7.6383289494       12.9713836021
  C         7.2625190035        5.3950268305       13.7942108186
  C        10.6570103153        5.3963065487        4.5255507617
  C        11.0529097155        4.1156595834        3.8110814568
  S        11.2091788310        1.5800166879        3.8161109553
  H        11.9195492021        2.8104203671       12.9987129765
  H        11.5702833853        1.1872785832       12.9366415424
  C        13.5345878772        1.6306759511       13.6758395872
  N         7.9939330561        8.6215811913       11.9754439265
  C         7.2736133214        8.1903275025       14.2305457625
  C         7.0710041433        5.9293216853       15.0516331502
  H         7.2244644120        4.3622052134       13.6604462267
  C        11.9149014583        6.2797166014        4.6345454853
  C         9.4746321316        6.1780584605        3.8747970950
  C        11.4458759583        3.7269697326        2.5055860490
  C        11.5237919460        2.3903427728        2.3582053761
  H        13.8445078072        2.6818963955       13.8529195288
  H        14.2902450176        1.0978950652       13.1876699401
  C        13.1702528736        0.9878724080       14.9864561778
  S         7.9195537266       10.0636600878       12.7195390158
  N         7.3833416676        9.5795973775       14.2217725808
  C         7.0887507862        7.3933193086       15.3480184032
  H         6.7437828396        5.2805822116       15.8300499210
  H        11.7564834679        7.1099424379        5.2786452563
  H        12.1650443215        6.6992539710        3.6508761993
  C        13.1851404585        5.5068291933        5.0053786645
  H         9.2254368836        7.0380994306        4.5612624884
  H         9.8543129906        6.5842166717        2.9181835657
  C         8.1965975729        5.3701163042        3.7262666060
  H        11.5772558771        4.4832005036        1.7819367572
  C        11.9201613853        1.6135607564        1.1783955535
  H        12.7583026707       -0.0376922644       14.9099096856
  H        14.0145446320        0.8443829680       15.6165541366
  C        12.3412342710        1.9030603831       15.9425338700
  C         6.7856332181        7.9693497465       16.6866901914
  H        12.9462955822        4.6991808628        5.6807214246
  H        13.5940008108        4.9009753893        4.2783514763
  C        14.3202592012        6.3721066927        5.5916709210
  H         7.6983343544        5.2674646111        4.6941259731
  H         8.4085705235        4.3628415276        3.3282217964
  C         7.3462393480        5.9203130382        2.6737999722
  C        11.9217203184        0.1829409581        1.0266098802
  C        12.1917789140        2.3624118123       -0.0549009644
  H        11.3090679776        1.5478058397       16.0415830984
  H        12.3371368393        2.9759946058       15.6738243131
  C        12.8906799233        1.8791869394       17.4330322510
  H         6.8844640965        9.0814892972       16.7484092678
  C         6.4192764596        7.4510944546       17.9056650413
  H        14.2375006053        6.8686955152        6.5327305699
  H        14.4316607396        7.2095746938        4.8626693454
  C        15.6503486389        5.5848841123        5.6470521747
  H         7.8887389276        6.5974032495        1.9865373935
  H         6.9906227744        5.1075883320        2.0517649807
  C         5.9783024816        6.4782021924        3.2119819295
  N        11.7611246995       -0.7700433372        2.0689636326
  C        12.1667846966       -0.4002496141       -0.2343588051
  C        12.4539334492        1.8035382045       -1.2857310332
  H        12.3078351997        3.4307261438        0.0607414442
  H        12.1410371374        2.1669194969       18.0592227173
  H        13.7263823749        2.6099967371       17.6766819967
  H        13.1148898931        0.8750980551       17.8583718713
  S         6.0226820996        5.7993971456       18.3212462252
  C         6.3974503027        8.4003306561       19.0565146984
  H        15.5463243720        4.5035325517        5.9146372544
  H        16.2281464442        5.6150890118        4.6772575842
  C        16.5256748861        6.1985779559        6.7304571092
  H         6.2280217643        6.9938232434        4.1532556674
  H         5.4255206936        5.6475372858        3.4523071810
  C         5.3199703409        7.4206932701        2.2195901974
  S        11.8884717358       -2.2797571308        1.4015050557
  N        12.2846720537       -1.8333302884       -0.1018121065
  C        12.3675639670        0.3353556322       -1.4200789076
  H        12.6599088813        2.5273206472       -2.0302220609
  C         5.9834326439        6.4189511216       19.9645996587
  N         6.0685396356        7.7840448909       20.1793768518
  O         6.6286341004        9.6168702363       18.9350939205
  H        16.8623383600        7.2585253750        6.5251144505
  H        15.8914381539        6.2206416361        7.6674699562
  C        17.7425199648        5.3644539588        7.0708324338
  H         6.1093262836        8.1649154371        1.9635151873
  H         4.9286826749        6.9023155155        1.3412958417
  C         4.1448225943        8.1839622863        2.8275784570
  C        12.5998384497       -0.4065281366       -2.5861217075
  S         5.5237615051        5.5079462802       21.4223172369
  C         6.0039775168        8.4861153828       21.4524139232
  H        17.4466310061        4.4278037307        7.6775882823
  H        18.1911981472        5.0154767129        6.1109291019
  C        18.8161930290        6.0900916720        7.8268736124
  H         4.2839749751        8.2503803900        3.9090480665
  H         3.2778041511        7.6116780289        2.6421556508
  C         3.9539322339        9.5712151141        2.2948492357
  H        12.2804527807       -1.3637854463       -2.4763443733
  C        13.0632890522       -0.0993584957       -3.8839635704
  H         5.3389813531        8.0618421649       22.2663371175
  H         5.4970801230        9.3869122823       21.2468520186
  C         7.3931313635        8.8287572176       22.0211736205
  H        19.0608470876        5.4908205421        8.7457788403
  H        18.4146953992        7.0407891791        8.1749906686
  C        20.0962807488        6.3254959853        7.1422729258
  H         3.2338300979       10.1115390435        2.9086775902
  H         4.8857943581       10.1251761708        2.3619691934
  C         3.5133235920        9.5515210597        0.8352374942
  S        13.5727528491        1.4294963682       -4.3663923650
  C        13.1781014628       -1.2063856181       -4.8753824385
  H         7.6168647951        8.3702748613       23.0047430522
  H         7.4746230886        9.8960323631       22.1022583251
  H         8.0993258377        8.4676269886       21.2248612256
  H        20.0220453866        6.5452182880        6.1338751281
  H        20.7369346629        7.1027238019        7.7384754062
  H        20.6487212098        5.3761167277        7.1684068692
  H         3.4689318063       10.5314936844        0.3866837765
  H         4.2257167178        8.8938428687        0.2247613774
  H         2.5776520353        9.0267639679        0.7351400692
  C        13.9092328170        0.6214409602       -5.9430491948
  N        13.8141628421       -0.7229024956       -5.9469863812
  O        12.7971539755       -2.3363004101       -4.7024658794
  S        14.5974118963        1.4239706922       -7.3135658847
  C        13.8781681799       -1.4891179177       -7.1509717265
  H        14.2597158788       -2.4596635883       -6.8951612842
  H        14.6575183783       -1.2240760962       -7.8420029498
  C        12.5308427573       -1.6006990677       -7.8765545646
  H        12.5071732102       -2.5007152402       -8.5325672997
  H        12.3994879563       -0.6379125906       -8.3106410011
  H        11.5989569843       -1.6836315416       -7.3309179854
