352
 i =   103100, time =    51550.000, E =        99.9288370988
  H        10.9088627120        4.5270138043       31.8649703555
  C        10.9853506569        5.5472638795       32.2975461168
  H         9.9875205298        6.0454759519       32.2454429733
  C        11.8276623711        6.3941242418       31.2905245862
  C        11.6130239743        5.4790385138       33.7024206660
  C        11.0908868077        6.6979533289       29.9707375120
  H        12.1525648178        7.3259349579       31.6885401129
  H        12.7795035952        5.8421227117       31.1268960778
  H        12.0367496175        6.4317830104       34.1229136957
  H        10.9058338949        5.1613268812       34.4331033332
  H        12.4582740267        4.7776610653       33.7635710600
  C        10.8850722284        5.4246582227       29.1644783879
  H        11.7238645224        7.3033635144       29.4540255411
  H        10.1366031399        7.3173495998       30.1134900862
  C        11.2083846665        5.5100221848       27.6850461964
  H        11.4341308254        4.5522171705       29.5592339306
  H         9.7932635931        5.1208643808       29.3585871096
  C        10.0902778453        5.0134265815       26.6963070361
  H        11.9490842906        4.7820374867       27.5223281907
  H        11.6493273247        6.5350831272       27.3542653577
  C         8.9560926008        5.9400766946       26.3857233656
  H        10.6196741637        4.8975357314       25.7599253723
  H         9.7907251224        4.0250788616       27.0482342883
  C         7.7699497592        5.2850785234       25.6442979668
  H         8.5858910114        6.5530907689       27.1869664359
  H         9.2794092853        6.7565757968       25.7437898828
  C         7.3587299863        4.0627347211       26.3524209985
  C         8.1259710870        4.5560206138       24.4234161745
  C         6.6275021425        6.3187635812       25.5331307068
  C         7.6242996331        2.8963421338       25.6551174495
  C         6.7430314749        3.7006207609       27.5789364759
  C         8.1285751515        3.2235083410       24.4063825627
  C         8.5731164675        5.1169197151       23.2228318255
  H         7.0440345517        7.0550340012       24.9079778134
  H         6.3512549928        6.6967392424       26.5334379647
  C         5.3396848549        5.7832138968       24.8113407762
  S         7.1738830922        1.4992369312       26.4558828979
  C         6.6752524233        2.3639717650       27.7978983056
  H         6.3739728520        4.4533502673       28.2448213833
  C         8.5899168429        2.5086367834       23.3435385850
  H         8.5378974889        6.1864372867       23.0295103894
  C         8.8741281362        4.4173091096       22.0865728047
  H         5.5620199205        5.5943360631       23.7137263868
  H         5.0948195139        4.8610844377       25.2952272821
  C         4.0960485129        6.7678042632       24.7979101706
  C         6.2474836383        1.7043338017       28.9997625546
  C         9.0195778787        3.0479103485       22.1170162913
  H         8.6023595287        1.4487025772       23.3582962640
  C         9.3162545323        4.7404382342       20.8291624232
  H         3.3565793827        6.3742478010       24.1105479920
  H         4.3245130622        7.7831122706       24.4235135646
  C         3.4437350496        6.9531197250       26.1719559592
  C         6.1992920894        0.3604006037       29.2880636508
  C         6.0673058736        2.5792065655       30.2102484937
  C         9.4675857328        2.3079366114       20.9612151436
  C         9.6826488546        3.6221359335       20.1428684765
  S         9.4781010487        6.2183727014       20.0081250509
  H         2.6965733781        7.7424086444       26.0874782492
  H         4.1943910230        7.2673795886       26.9139243909
  C         2.6139158300        5.8150983429       26.6420524159
  N         6.5779505658       -0.5794397823       28.3404366766
  C         5.8752935518       -0.2052841056       30.5432932964
  C         5.6356543502        2.0055322760       31.4092251691
  H         6.1792781372        3.6378894645       30.2705609457
  C         8.2932970526        1.4503563346       20.3348618303
  C        10.6867416557        1.4827347421       21.1586727537
  C        10.0226995611        3.9717031791       18.8366526048
  C         9.9469001415        5.2804524289       18.6481003826
  H         1.6862023773        5.8504927737       26.1594592389
  H         3.0238986652        4.8764552884       26.3532413523
  C         2.3046957271        5.7615746265       28.1454454881
  S         6.5628606287       -2.0711790755       29.0304402419
  N         6.0056560118       -1.6338871691       30.4642884621
  C         5.5719040137        0.5530979544       31.6750472970
  H         5.3615652428        2.6229565428       32.3233793228
  H         7.8744907342        0.7472678050       21.0819300901
  H         8.7590662892        0.7329319973       19.6554666759
  C         7.0519319068        2.1134976082       19.6811392695
  H        10.8180139256        0.6993017693       20.3750846024
  H        10.6328800959        0.8530217902       22.0402876007
  C        12.0165048686        2.3470219653       21.1973322632
  H        10.4232652266        3.2296362145       18.2176083251
  C        10.2055647060        5.9198916822       17.3197117460
  H         1.4930262145        5.0660015441       28.4483258718
  H         1.8911207203        6.7987743957       28.5058384850
  C         3.4859572539        5.4194622238       29.0014227680
  C         5.3462863519       -0.1628012930       32.9119820257
  H         7.4550024664        2.4787781799       18.6930902895
  H         6.8248153856        2.9921818939       20.2144663025
  C         5.9105751063        1.2110228371       19.2461067937
  H        12.0209243875        3.0707405610       22.0268512427
  H        12.2536549220        2.9520877289       20.3143507922
  C        13.2912481628        1.6294741956       21.5557136127
  C        10.2373333681        7.3241725490       17.0872661412
  C        10.5213326538        5.0839347683       16.1515089690
  H         4.1065667827        4.6291066361       28.5567752242
  H         4.1073200877        6.2795454453       29.0551394806
  C         3.1500333152        5.1993618589       30.4624802555
  H         5.4754515611       -1.2196640250       32.7658567221
  C         5.0563558001        0.2790105177       34.2077508990
  H         5.4326428865        0.9908789932       20.1703818992
  H         6.5437338195        0.3135493741       18.9315110871
  C         4.9916906297        1.7633315477       18.1696915728
  H        13.3789157098        1.2906365689       22.5892973950
  H        13.2500159470        0.6901999389       21.0648852947
  C        14.5531189670        2.3285526952       21.1978009449
  N        10.1804230761        8.3615970381       18.0302798723
  C        10.5364160771        7.8040365713       15.8084559547
  C        10.8717188619        5.5913955203       14.8758308138
  H        10.7196618449        4.0361428697       16.2570132328
  H         4.0303472711        4.9356749326       31.0231077735
  H         2.7070917016        6.0467870182       30.9330916662
  H         2.4679496974        4.3410358186       30.5404986360
  S         4.7325071365        1.8975108777       34.7356204294
  C         4.9488796423       -0.7909578995       35.2381090446
  H         4.8248235886        2.8151245100       18.2270977583
  H         5.3575923310        1.7214464998       17.1802494087
  C         3.6030584384        1.1350363784       18.1677470853
  H        14.3580562760        3.3951664564       21.5032414495
  H        14.7042067217        2.2830932468       20.1900173609
  C        15.7793781224        1.7104551148       21.9381438847
  S        10.1405165254        9.7920012599       17.2252472134
  N        10.4783210488        9.1600417924       15.7843159059
  C        10.8652478615        7.0465249946       14.7051793709
  H        11.1464976506        4.8923896614       14.0999173811
  C         4.3893620300        1.1397061214       36.3317370028
  N         4.5547843196       -0.1897207518       36.4133662069
  O         5.1438632047       -1.9780596490       35.0812932879
  H         3.2007623448        1.0863936564       17.1623365434
  H         2.9475718119        1.7686043859       18.7290913541
  C         3.4887848655       -0.3171393550       18.6820271296
  H        15.6085592559        1.5204060991       23.0005212414
  H        16.1036413339        0.8229334386       21.5191274410
  C        16.9187844604        2.6294924250       21.8630542045
  C        11.0869826501        7.7664612527       13.4604795786
  S         3.9516862814        1.9877061781       37.8199980830
  C         4.3071395558       -1.0619337531       37.5413639420
  H         4.3411753903       -0.9894488209       18.4182348214
  H         3.6684528230       -0.2123388815       19.8150233064
  C         2.1719186262       -1.1454531125       18.4386174209
  H        16.7052683762        3.6020610814       22.2968311567
  H        17.3245815320        2.6711492306       20.8580233878
  C        18.0767995773        2.1382721593       22.6940043618
  H        10.8381099416        8.8002581099       13.5093006131
  C        11.6847821555        7.4676810869       12.2554816394
  H         3.5114823723       -0.6901719189       38.2392975888
  H         3.8716592462       -1.9988198876       37.1477539351
  C         5.5522813054       -1.3266168449       38.2489179753
  H         1.3345377580       -0.4932874935       18.3914429004
  H         2.0125848547       -1.8743786183       19.2216028118
  C         2.2584215393       -1.8660717534       17.1149685800
  H        18.3638399624        1.1498726642       22.3233266315
  H        18.9668084447        2.7231123135       22.4596491168
  C        17.9087835923        2.1308937750       24.2522016163
  S        12.4355094179        5.9877702909       11.7850538152
  C        11.8165719335        8.6163660415       11.3091469536
  H         5.6199952576       -2.3860428203       38.4755057416
  H         6.4624565982       -1.0417685958       37.6921389149
  H         5.6866369542       -0.8973576230       39.2154619573
  H         3.1569944485       -2.4876172119       17.1082682898
  H         2.3170314786       -1.2017518603       16.2687541435
  H         1.4617011217       -2.5875394334       16.9038512191
  H        18.9535552748        2.0047458893       24.6678156699
  H        17.2537766309        1.2912576674       24.4819320250
  H        17.4131622207        3.0694302578       24.5939330028
  C        12.6634917163        6.7528219108       10.1492696773
  N        12.4305030846        8.1136983707       10.1671305593
  O        11.6008332629        9.7918231967       11.5631741556
  S        13.2761706641        6.0542370344        8.6304712038
  C        12.4287350117        8.9607787301        8.9448218820
  H        12.6471093041        9.9774794635        9.3019563838
  H        13.2982582641        8.8016398465        8.3569592921
  C        11.0383470932        9.2047527099        8.2401775110
  H        10.3246487898        9.9141336030        8.6751153977
  H        11.1392514767        9.5047381899        7.2273952558
  H        10.4746037775        8.2606678065        8.2079989889
  H         2.3987355827        3.2190239861       12.2205727279
  C         2.9011029985        2.2854984238       12.3287268571
  H         2.3219987564        1.5236619724       11.8629370845
  C         4.2687142313        2.2946675553       11.7052412742
  C         2.9928085589        1.9821135712       13.7969475241
  C         4.2876723551        2.5534635875       10.1773391345
  H         4.8480673663        1.3714468340       11.9219027124
  H         4.8571763269        3.0961898137       12.1622074244
  H         3.6341210372        2.7416720057       14.3513314374
  H         3.6339917270        1.1062958589       13.8654194087
  H         2.0333076376        1.9986319621       14.2570909995
  C         4.8086848570        1.2388501288        9.3915670233
  H         3.3073549223        2.8742208912        9.9969564443
  H         4.9021643478        3.4215394222        9.9676608621
  C         5.6417361699        1.6182257177        8.1083449380
  H         3.8976344461        0.6830983112        9.2016567491
  H         5.5001625117        0.5707936418        9.9340395407
  C         6.9373347060        2.4187786146        8.2855404705
  H         4.9657162389        2.2571186330        7.5469155267
  H         6.0003911023        0.7928820224        7.4612382926
  C         8.0329502401        1.6249351449        9.0648393118
  H         7.4502353424        2.5870907225        7.3163963304
  H         6.7158191841        3.3725591079        8.8132484439
  C         9.3168774561        2.5105696790        9.2201732046
  H         8.2879040279        0.7116824698        8.5985686209
  H         7.7116950320        1.4264329406       10.0658697488
  C         8.9927033861        3.8774572357        9.8668059380
  C         9.7482819401        3.1754581375        7.9758835873
  C        10.4128228221        1.8301049572       10.0197936123
  C         9.2983215584        5.0233370438        9.0705656749
  C         8.5255972147        4.3001202011       11.1158354452
  C         9.7980196709        4.5464909239        7.8491681787
  C        10.2205831092        2.5156503403        6.8067036072
  H         9.9540183076        1.4928213762       10.9530619585
  H        10.8154309453        0.9625493339        9.5755653301
  C        11.5898945615        2.7366741587       10.4345041485
  S         8.9913555212        6.5627522872        9.8434205801
  C         8.4250662012        5.6556861414       11.2470993862
  H         8.1981088908        3.5438154365       11.8306855607
  C        10.2822782364        5.1024406643        6.7351571332
  H        10.1981333934        1.4786839271        6.8657375714
  C        10.6538599562        3.1135975639        5.6342586315
  H        11.1507696029        3.5078872222       10.9657551525
  H        12.1461754261        3.2430131986        9.5864807416
  C        12.7004499820        1.9624164359       11.2122224626
  C         7.9282559650        6.4148425043       12.4462099360
  C        10.6712576889        4.4841377246        5.5320154770
  H        10.2211128209        6.2480096220        6.7343707845
  C        11.0613723675        2.7006465375        4.3674449869
  H        13.5386339535        2.6098090012       11.3861636642
  H        13.1196517577        1.1089103950       10.6943926029
  C        12.1296075591        1.5825131360       12.5890280055
  C         7.8991951808        7.8207665503       12.6557550375
  C         7.4267115252        5.6043716997       13.5999905954
  C        11.0741964628        5.1492477702        4.2915776353
  C        11.2864177506        3.8338111073        3.5467445083
  S        11.3474051259        1.1999812167        3.6200698530
  H        11.1826516078        2.0431373525       12.8949323171
  H        11.9195386466        0.5371970293       12.5709592577
  C        13.2619517166        1.6757206870       13.6400783271
  N         8.3023639236        8.8281975820       11.7710026725
  C         7.5878922213        8.4177189162       13.8159945737
  C         6.9031391830        6.2292638806       14.6770470262
  H         7.3960035490        4.5296467967       13.5514940904
  C        12.3307289664        6.0264078090        4.4381462497
  C         9.8601885818        5.9240865608        3.6461633518
  C        11.8749555750        3.4414139321        2.3262144265
  C        11.8137395246        2.0492822583        2.2018954435
  H        13.9479632885        2.5524999496       13.4177533303
  H        13.8552370042        0.8315395070       13.5470611509
  C        12.8453624653        1.8469064873       15.0993105992
  S         8.2036074686       10.2820447203       12.4057024546
  N         7.7208850347        9.8059507724       13.8746036956
  C         7.0334757106        7.7438876220       14.9116179438
  H         6.6430663290        5.5685599817       15.4771084931
  H        12.1043088635        6.7202435356        5.2385970107
  H        12.4677064381        6.5801517089        3.4348721249
  C        13.6104538258        5.2713836636        4.6962273117
  H         9.5164890518        6.7121783984        4.3898760942
  H        10.2461135049        6.4572652877        2.7678058801
  C         8.6533006505        5.0184338971        3.2495379431
  H        12.3470692516        4.2018492926        1.7354717348
  C        12.1121901390        1.3673853539        0.9051704749
  H        12.3217818287        2.7994166641       15.3442028880
  H        12.1388061944        1.0780125165       15.3519047151
  C        13.9955772523        1.8511839755       16.0754316726
  C         6.7691793529        8.4005254893       16.1704455924
  H        13.4334606107        4.6165151201        5.5725480751
  H        13.8234304806        4.6376117062        3.8870928764
  C        14.7573029473        6.1218412906        4.8224187071
  H         8.3266096962        4.4524850547        4.1318263556
  H         8.8499702888        4.1436907379        2.6356498367
  C         7.5273893426        5.7905226885        2.5733937906
  C        12.0551459341       -0.0177146149        0.6684877196
  C        12.2821635495        2.1781625645       -0.3212046326
  H        14.9006506242        2.4453789432       15.7793295086
  H        14.2819222901        0.8302012065       16.1597247596
  C        13.6516226332        2.4917144687       17.3930039737
  H         6.7987301131        9.4684372818       16.1038109200
  C         6.6443180803        7.9012734266       17.4494516576
  H        14.5951607747        6.8385811074        5.6800197289
  H        14.9527319448        6.7083776646        3.8868072659
  C        16.0345261646        5.1300752909        5.1373195450
  H         6.9741654179        6.4017649121        3.2790788628
  H         7.9915276719        6.5185694113        1.8589479375
  C         6.4518454576        4.8915844358        1.9413904544
  N        11.6979626908       -0.8875142643        1.6470001134
  C        12.2773543274       -0.5804461832       -0.5795733416
  C        12.5295232276        1.5881803683       -1.5682734565
  H        12.3259681305        3.2091607506       -0.2277431740
  H        14.2114383746        3.3686332833       17.7464165350
  H        13.8401748374        1.6697601066       18.0583450055
  H        12.5851684859        2.7766912079       17.5267143768
  S         6.5736886088        6.2481787939       17.9324490233
  C         6.5949738227        8.9070927750       18.4764993373
  H        15.6747622393        4.0832043688        5.2779449608
  H        16.8132954608        5.1232404000        4.3440159427
  C        16.5708465096        5.5866587784        6.4112741809
  H         6.4028535518        4.0713971168        2.6130722266
  H         6.8431869837        4.6560606393        0.9693077511
  C         5.1258596119        5.6251316878        1.9258254526
  S        11.6815358017       -2.4282472072        1.0060328440
  N        12.1538299386       -1.9512312919       -0.5153222945
  C        12.5150057642        0.1231266160       -1.7561981393
  H        12.5943104541        2.2430760292       -2.4276715088
  C         6.2410926367        6.9184474399       19.5329943943
  N         6.2616245314        8.3017448388       19.6196468241
  O         6.6878085306       10.1200275502       18.2828553240
  H        17.0334398918        6.5235014297        6.0888664150
  H        15.8198851323        5.8025889394        7.1413073377
  C        17.5044029631        4.7371921415        7.1690543845
  H         4.2817588783        5.0071461579        1.6292365103
  H         4.8445860728        5.8154780105        2.9446487949
  C         4.9834361946        6.9162875002        1.0204631446
  C        12.7431890582       -0.5912428532       -2.9091231149
  S         5.9420337548        6.0943340265       21.0496959697
  C         6.3292175222        8.9106687397       20.9221803309
  H        16.9540864100        4.3581582997        8.0616538393
  H        17.5920855341        3.8161773834        6.6110465690
  C        18.8597848104        5.2880768846        7.5114387609
  H         4.5566834997        6.6605824717        0.0208619612
  H         5.9254881440        7.4159593610        0.7117204200
  C         4.1576319945        8.0707085360        1.5685861438
  H        12.3446810836       -1.6375258107       -2.9510507413
  C        13.2912825236       -0.1955867605       -4.1080795800
  H         5.6750305306        8.4404228068       21.7073922154
  H         6.0085458178        9.9141003732       20.7975507890
  C         7.7716032320        8.9564482110       21.4804065476
  H        19.2297831479        4.5843052116        8.2531115035
  H        18.7722539654        6.2507877932        8.0162353857
  C        19.8318879875        5.4765611843        6.3163223650
  H         3.7172895436        8.5165572571        0.6896130227
  H         3.3623605196        7.5824068117        2.1967106206
  C         4.9802006176        9.1743554215        2.2517573130
  S        14.0351394526        1.2916340882       -4.5591428178
  C        13.4053952995       -1.2581994400       -5.2007158872
  H         7.9542054300        9.8011670994       22.1796299072
  H         8.3334957854        9.2467356773       20.5695108257
  H         8.2091692706        8.1006743095       21.8954227446
  H        20.0265556347        4.5264583520        5.7203374772
  H        19.3081327213        6.1823300610        5.6354691505
  H        20.7220626141        5.9000447040        6.6369631076
  H         5.6529804269        9.7429417340        1.5104012788
  H         4.4235218783        9.7811018529        2.8742441816
  H         5.6243083700        8.7254832582        2.9925775574
  C        14.2643929319        0.5773086073       -6.2124313949
  N        13.8879275686       -0.7169882822       -6.3258606542
  O        13.1506642726       -2.4253566192       -4.9216966290
  S        14.9867769863        1.3747940756       -7.5629850861
  C        14.0277641674       -1.5688293352       -7.5085938688
  H        14.4159506273       -2.6074636589       -7.4582888464
  H        14.8736365130       -1.1505086682       -8.0317973831
  C        12.8958941886       -1.3020591538       -8.4185822875
  H        11.9091363615       -1.6682622154       -8.0656241674
  H        13.0713219335       -1.8193417435       -9.4086169805
  H        12.7674413097       -0.2106227580       -8.6138511079
