352
 i =    92200, time =    46100.000, E =       100.5163001614
  H        11.6808285666        7.6433945567       32.9122347672
  C        11.5083892436        6.5719052657       33.0293784555
  H        12.5511944387        6.2084648608       32.7755083851
  C        10.5483341299        6.0526159925       31.8880327109
  C        11.1429228769        6.1980307349       34.4677357314
  C        10.8229545803        6.6782887547       30.4954216741
  H        10.7342575038        4.9976009440       31.6325646509
  H         9.4908530273        6.1353698489       32.2033368823
  H        11.9117139060        6.3073564652       35.1977032367
  H        10.4131076616        6.9287002265       34.8251444561
  H        10.6932827572        5.2230115693       34.5503960168
  C         9.8309750331        6.1973984362       29.4731438196
  H        11.8433606382        6.6520155419       30.2694833089
  H        10.6450440137        7.7728195138       30.5026138701
  C        10.4223703929        5.8675910405       28.1446824787
  H         9.2269514322        5.3351942141       29.8159656613
  H         9.0590802056        7.0206422339       29.3948461576
  C         9.4211095467        5.0961050153       27.2617268851
  H        11.2900266520        5.2339065507       28.3695508130
  H        10.8372535053        6.8023780886       27.7132330623
  C         8.3743675975        6.0381298149       26.5925338631
  H        10.1026952405        4.5260810078       26.6071878354
  H         8.9767437254        4.3916184454       27.9074104601
  C         7.2652266578        5.1767224064       25.8231935847
  H         7.9520376232        6.7298524267       27.3601275129
  H         8.9136635272        6.6686361332       25.8675253846
  C         7.0117359642        3.8584614205       26.5770658711
  C         7.7362541250        4.4262892220       24.6503276117
  C         5.9276622166        6.0183967268       25.5773100911
  C         7.2534051237        2.7034277647       25.7939832472
  C         6.4572012229        3.4854213190       27.8038194150
  C         7.7038791202        3.0948867458       24.5155143468
  C         8.1897414318        5.1116386660       23.4795533099
  H         6.2287298954        6.9791783637       25.1446871323
  H         5.4249020645        6.2364822389       26.5068279694
  C         4.8932320725        5.3292850181       24.7563165551
  S         6.8245458634        1.2197497025       26.5256223933
  C         6.3798073425        2.1209651917       27.9296865264
  H         6.0244021114        4.2432454027       28.4941937908
  C         8.0628565909        2.4831485246       23.3803735243
  H         8.1120271895        6.2401409572       23.4727067783
  C         8.4454422653        4.5107263240       22.3054601136
  H         5.2218289095        4.9610573800       23.7770327195
  H         4.6746238339        4.4127706865       25.2508992272
  C         3.6491449814        6.2040656553       24.4801128357
  C         5.8013857298        1.4443260253       29.1072613246
  C         8.4270929154        3.1301777244       22.2434842356
  H         7.9160054055        1.4281453429       23.3220507390
  C         8.8437996395        4.8447534186       21.0561040380
  H         3.0677821345        5.6288568548       23.7460762006
  H         3.9853719131        7.1340705299       24.0264702609
  C         2.7607685756        6.4927388525       25.7216074500
  C         5.7714150985        0.0410817366       29.3847926459
  C         5.4252362438        2.3373857870       30.2305675760
  C         8.8728073944        2.3894520064       20.9807054751
  C         9.0906566187        3.7453067261       20.2712054482
  S         9.0629261165        6.4130308294       20.4014095802
  H         2.0479610655        7.3150404599       25.5550052650
  H         3.4144118671        6.7959288795       26.4842834017
  C         2.0575180322        5.2355525190       26.2941951452
  N         5.9366278332       -0.9400130098       28.3763407128
  C         5.5424038294       -0.4794259116       30.6178627172
  C         5.2806237499        1.7826565159       31.4928195505
  H         5.1581722821        3.3415191935       30.0425284841
  C         7.8126129125        1.6443221479       20.2581788370
  C        10.2368272381        1.6196980407       21.0705566897
  C         9.3415387513        4.1633228554       19.0034549690
  C         9.4051583262        5.5540181152       18.8804749226
  H         1.3547601478        4.7086899200       25.6520334050
  H         2.8510664732        4.5056918359       26.3998009997
  C         1.5206118226        5.5890240236       27.6636172971
  S         5.8969372481       -2.3787564290       29.1373722237
  N         5.6425592889       -1.8539050069       30.6564369290
  C         5.3137042230        0.3226790332       31.7414829933
  H         5.0781022396        2.4803616556       32.3281974219
  H         7.8507546493        0.7163902913       20.7653314017
  H         8.2553372536        1.4012616273       19.2965374872
  C         6.4056058907        2.1307585700       20.2512279041
  H        10.4620171731        1.1909432975       20.1040475740
  H        10.2180590870        0.9096362749       21.9031365595
  C        11.4054809098        2.4922447049       21.5431100419
  H         9.3764328494        3.4468459603       18.1982416094
  C         9.6638712925        6.4333326082       17.6840932413
  H         0.6671168849        4.9432953921       27.9506740610
  H         1.1818144367        6.5698558063       27.6224542618
  C         2.4325561636        5.4907401262       28.8750080216
  C         5.1537328168       -0.2443460472       33.0469389861
  H         6.2781061649        3.0119999679       20.7932720866
  H         5.8400658658        1.3116330665       20.7752571198
  C         5.9599103176        2.2831432622       18.7959591038
  H        11.0500869708        2.9955324528       22.5124747725
  H        11.5309207083        3.2110121970       20.7234392726
  C        12.6681438700        1.7238511896       21.7888571285
  C         9.8408853502        7.8131834085       17.6538317837
  C        10.0336903774        5.7292954625       16.3755450336
  H         2.7888517960        4.4514484379       28.9417206069
  H         3.2150744339        6.2483815897       28.7815514170
  C         1.7655416185        5.9100113514       30.1552006846
  H         5.3871947063       -1.2958447331       33.0637191314
  C         4.8711952193        0.2351850467       34.2666302925
  H         6.2012525548        1.3204704194       18.3607809973
  H         6.6013513627        3.0782914846       18.4652458668
  C         4.4316783948        2.6643495966       18.7057451671
  H        12.5248378579        0.8278046464       22.3625202412
  H        13.0073536800        1.5303969184       20.7840763274
  C        13.6808438921        2.6498584196       22.4138964331
  N         9.5229937665        8.6940601669       18.7234742935
  C        10.2005403460        8.5140512950       16.4951456293
  C        10.4266901281        6.4374291974       15.2946198238
  H         9.9286088167        4.6370489698       16.3422660800
  H         0.9214446344        6.5580652906       29.8725807352
  H         1.3636886710        5.1258779167       30.8215041368
  H         2.4177549021        6.3695320541       30.8136848095
  S         4.2864300236        1.8518397118       34.7016441231
  C         4.7914743644       -0.6911299663       35.4449985535
  H         4.1451638723        2.7957745406       19.7163014648
  H         4.2758610231        3.6105382976       18.1879186065
  C         3.4999254844        1.6984188869       17.9188338699
  H        13.2697868877        3.2729269794       23.2367061680
  H        14.1408591074        3.2423331631       21.6172647456
  C        14.8163986512        1.7912109166       22.9076725169
  S         9.7310231587       10.1364625820       18.1556578057
  N        10.1268008051        9.8470697887       16.5759874973
  C        10.5869668024        7.9081228980       15.2972112359
  H        10.5412703811        6.0086086401       14.3402876277
  C         4.2460324965        1.2299276988       36.3842604059
  N         4.5139678647       -0.0608672212       36.5948806142
  O         4.8724829401       -1.8997008448       35.1103101544
  H         3.8698305988        1.5040388375       16.9008333507
  H         2.5544705946        2.2292042049       17.8278808433
  C         3.3641224252        0.4640968336       18.8218397528
  H        14.3313883292        1.2255006602       23.6647896371
  H        15.2731580932        1.1197812040       22.1663777194
  C        15.9299515366        2.7120519981       23.3968183937
  C        10.9326284118        8.7404033311       14.1172280134
  S         3.8258705131        2.1998175366       37.8750852011
  C         4.5301839331       -0.8040786577       37.9079966412
  H         4.2802472651        0.1406463234       19.2707441294
  H         2.7178095532        0.7966440814       19.6331724630
  C         2.8817926549       -0.7122924433       17.9949132937
  H        16.4141467985        2.3700780479       24.3188190586
  H        15.6113143460        3.7051122373       23.6047319367
  C        16.9775605771        2.9144584505       22.3173597189
  H        10.7622287756        9.7562004892       14.2147026786
  C        11.3870965852        8.4109728972       12.8823478816
  H         3.8857128383       -0.2296650995       38.5350873699
  H         4.0319502754       -1.8103330981       37.7413412157
  C         5.9677657207       -0.9496646532       38.5169828896
  H         3.7253626741       -1.3938084578       17.8962146786
  H         2.4847474181       -0.3041225479       17.0547260296
  C         1.7232547934       -1.4390368635       18.6492631435
  H        16.6309045634        2.4218820859       21.4375632788
  H        17.1348966299        3.9484526810       22.0917620158
  C        18.2842664303        2.3168446329       22.7337848242
  S        11.8604719704        6.9216028568       12.4486083038
  C        11.4765236335        9.5030340343       11.8769420050
  H         6.7446506052       -0.6360497560       37.8812682649
  H         6.0029237433       -0.3768607578       39.4961897864
  H         6.2564256647       -2.0217889196       38.7013170773
  H         2.1151685465       -2.0334855378       19.5473115267
  H         1.2129963885       -2.1739255286       17.9566932241
  H         0.8488411660       -0.8369743623       18.8824673337
  H        18.5826590850        2.7254115879       23.6777270109
  H        19.1273419190        2.4593457010       22.0084865480
  H        18.0965611978        1.2148654137       23.0110625480
  C        12.3888413266        7.6839586171       10.8995586699
  N        12.1235704770        9.0082266445       10.7774028854
  O        11.1687123005       10.6631544594       12.1251585048
  S        13.2364349919        6.8734286710        9.5654834006
  C        12.5366311497        9.8345055946        9.6543847173
  H        12.9586464836       10.7945383650       10.1092561669
  H        13.4073482200        9.6049865884        9.0747038184
  C        11.3918344442       10.3156678304        8.7922751628
  H        11.0917491118        9.5812691857        8.0586042444
  H        10.5488303093       10.6158966266        9.4000306333
  H        11.6432306708       11.2785418539        8.3478352599
  H         4.0932342394        1.0694032663       12.7504010310
  C         3.7006973488        2.0731754555       12.6865870323
  H         4.4730971588        2.7194815942       13.0630515820
  C         3.1782249908        2.4609561021       11.3526593508
  C         2.6343392142        2.1882994405       13.7476160193
  C         4.3631609611        2.7051561218       10.3552552192
  H         2.5336218727        3.3590410233       11.5666848733
  H         2.5637468195        1.6560974332       10.9946065719
  H         1.9189816999        1.4193534584       13.4508313105
  H         2.0530861855        3.1407676339       13.6777746149
  H         3.0550589832        1.8867794812       14.7308450183
  C         4.7444674580        1.3851991994        9.6094280198
  H         3.9559720003        3.2689459555        9.5504345640
  H         5.2539509887        3.1868477270       10.7599501736
  C         5.4321234022        1.7478370115        8.3471080952
  H         3.8948995748        0.7150111546        9.5211062820
  H         5.4682246922        0.8552546660       10.1944509379
  C         6.6566875152        2.6665413668        8.3803795627
  H         4.6384240187        2.0351052608        7.6370394739
  H         5.7856173434        0.8680338386        7.7999268372
  C         7.7743286822        2.0457165917        9.2707833641
  H         7.1460105159        2.7432790440        7.3628521342
  H         6.4155730642        3.6471883514        8.7794214689
  C         9.1165641402        2.8274484042        9.5428697011
  H         8.0071813522        1.2004121316        8.6207800737
  H         7.3190483532        1.7690139761       10.2259731748
  C         8.8616424285        4.2145948025       10.2207116228
  C         9.6873972029        3.5186755779        8.3050640073
  C        10.0594604502        2.0981033432       10.4751102752
  C         9.0320112326        5.3121411875        9.4347791974
  C         8.3542872699        4.6317926611       11.4574624894
  C         9.5494942741        4.8983037008        8.1775862288
  C        10.1178242763        2.8345264000        7.1755036304
  H         9.4692870360        1.7719511890       11.4058685763
  H        10.3683942229        1.1521289083       10.0006439702
  C        11.4407176567        2.7569026561       10.5997163468
  S         8.6415039786        6.8060145088       10.2023811259
  C         8.2946785554        5.9715177659       11.5951626582
  H         8.0939805897        3.8254767851       12.1726032187
  C         9.9898634753        5.4703132723        7.0047461919
  H         9.9939990068        1.7174238092        7.1240758460
  C        10.4928943099        3.4472606510        6.0387387285
  H        11.2877257881        3.8552436335       10.7815407926
  H        11.9591859099        2.6583634609        9.6275345833
  C        12.3367449228        2.0449573243       11.6829084473
  C         7.6616318313        6.6525110888       12.7768145050
  C        10.4540686673        4.7900075620        5.8816004565
  H         9.8541287506        6.5590027067        6.9107227588
  C        10.9361105767        2.9893364892        4.8307397196
  H        13.3518274911        2.3446430857       11.6536377076
  H        12.3620066819        1.0157966824       11.4103998527
  C        11.7920576061        2.2593030628       13.1227337770
  C         7.5844487818        8.0424349639       12.9837827196
  C         7.2123129812        5.7548813868       13.8848780552
  C        10.8746859065        5.4977370856        4.6077881632
  C        11.0930012383        4.0846972546        3.9761397112
  S        11.1379192830        1.4692735489        4.1860235449
  H        11.4025855253        3.2526482527       13.2905232990
  H        11.0181638784        1.5482063991       13.2428733031
  C        12.8797202944        2.0015247759       14.1398265195
  N         8.0839592876        9.0973670975       12.0964282159
  C         7.2171493526        8.5512864040       14.2541180390
  C         6.7988239984        6.2914482383       15.1499172423
  H         7.3022860204        4.6891359250       13.8505986397
  C        12.1667138286        6.2960843535        4.9066450322
  C         9.8351796668        6.3227829634        3.8479097447
  C        11.4011152223        3.6064006077        2.6880187405
  C        11.4040053486        2.2274132236        2.6064134516
  H        13.6534680367        2.7838262305       14.0617998579
  H        13.2344069867        0.9590252071       14.0641617473
  C        12.2752751411        2.1147134233       15.5546256767
  S         7.8051344628       10.5287161129       12.8556799371
  N         7.3472272803        9.9820111430       14.2831542581
  C         6.8196005135        7.8162449223       15.3794794305
  H         6.4603361425        5.6340632013       15.9281254285
  H        11.7803503214        7.2104511073        5.4563991209
  H        12.5594602090        6.7545230779        4.0474165269
  C        13.2107076126        5.5880705330        5.8529124074
  H         9.4550179382        7.0413235903        4.4461093207
  H        10.2414696081        6.8026795222        2.9420082280
  C         8.4433932701        5.6194381821        3.5323042547
  H        11.5875883270        4.4193659319        1.9747582742
  C        11.7065398275        1.5094552072        1.3250456054
  H        11.7408980352        3.0597582773       15.6497563412
  H        11.5031030914        1.3998193281       15.6906339667
  C        13.2096703345        2.0324837766       16.7330687244
  C         6.6532978875        8.5676611087       16.6140126305
  H        12.8192288568        5.5580875635        6.8876034991
  H        13.4318658447        4.5668465675        5.4978203959
  C        14.5519669205        6.2784059372        5.8196306057
  H         7.9273411523        5.2264812118        4.4024381639
  H         8.6571416537        4.7578419964        2.8547360058
  C         7.5565610081        6.5314960640        2.7682293015
  C        11.8711177260        0.1306362758        1.1637927409
  C        11.7552821768        2.2842552855        0.0531567408
  H        14.1027469274        2.4589277909       16.5168888860
  H        13.3328077523        0.9536032086       16.9138294614
  C        12.7121052474        2.5394362071       18.0760953978
  H         6.6524613879        9.5853435051       16.5968934277
  C         6.3437390591        8.1755698941       17.8867569546
  H        14.4191533744        7.3427797013        6.2252561009
  H        14.9708006051        6.3684667512        4.8449856809
  C        15.5335271766        5.5643904683        6.7795535571
  H         7.2840448284        7.3237116283        3.4995665782
  H         7.9386127647        6.8828011836        1.7906026899
  C         6.2594378686        5.8224207770        2.4986253684
  N        11.8155895374       -0.8446168883        2.1630915740
  C        12.2109770761       -0.4795944446       -0.0035079909
  C        11.9652171741        1.6484718222       -1.1601528114
  H        11.6383217064        3.3762352200        0.0333533919
  H        12.0000049129        1.8815854108       18.4980959720
  H        12.1821891374        3.4728180401       18.0432266563
  H        13.5802209644        2.8064979983       18.7239458984
  S         6.1626334012        6.5600568248       18.3291206735
  C         6.1539931643        9.2244360957       18.9500551450
  H        15.8365590457        6.2261663695        7.5079472461
  H        15.1312683123        4.8139465475        7.4075068681
  C        16.7602806399        5.2466678697        5.9300397588
  H         6.1395694858        4.9622655416        3.2204461728
  H         6.3567120993        5.3437038608        1.5387668717
  C         5.0545215740        6.7696169021        2.4707186421
  S        11.8123893435       -2.3299511208        1.5485276980
  N        12.2531218593       -1.8866564451        0.0927652193
  C        12.4114971594        0.2436801453       -1.1624997860
  H        11.9947090958        2.2929830917       -2.0771467775
  C         5.8359951610        7.2371764720       19.9211669780
  N         5.8726972167        8.5554568856       20.0434602704
  O         6.1495005418       10.4542885961       18.8670989649
  H        16.6763941075        4.4952051340        5.1088823080
  H        17.0914459248        6.1043355761        5.3938733553
  C        17.8906985699        4.6252406287        6.8071024938
  H         4.1130949753        6.2089228256        2.3038223151
  H         4.9721167568        7.1451814357        3.4967815054
  C         5.1229970587        8.0132883685        1.5012001273
  C        12.8627458921       -0.4261440156       -2.3406118013
  S         5.4934558438        6.1455867037       21.2171103655
  C         5.7796156670        9.2949801149       21.3219617937
  H        17.4378318395        3.9718230837        7.4842907313
  H        18.5160632863        4.0650384427        6.0991581501
  C        18.7422685444        5.6986432574        7.4312341900
  H         5.6435466071        7.7083172970        0.6345602842
  H         5.6836003633        8.8014590541        1.8898086794
  C         3.7260033471        8.5352450102        1.1524514076
  H        12.4145068937       -1.4400028637       -2.3600370957
  C        13.3965159015        0.0335564597       -3.4862586439
  H         4.9847455903        8.7815991198       21.8744725074
  H         5.3901886109       10.2593498459       21.2293348648
  C         7.1205839573        9.5198071019       22.0493828979
  H        18.9617413960        5.4684695119        8.5072589048
  H        18.1605906294        6.6119341767        7.3801393711
  C        20.0914537257        6.0191292970        6.7624499739
  H         3.4538865373        8.3197664689        0.1525056355
  H         2.9708574715        8.1751728813        1.8543847371
  C         3.5594492789       10.0794432202        1.1470136998
  S        13.9005215010        1.6130997113       -3.7689113748
  C        13.5227386400       -0.8778396649       -4.6732806746
  H         7.0098864863       10.0216690231       22.9971862957
  H         7.8422939711        9.9841264090       21.3730634221
  H         7.5183671332        8.4879200663       22.2181145412
  H        20.6201226705        5.0875693885        6.3929578967
  H        19.8689515503        6.7399131330        5.9568133698
  H        20.7587538871        6.4760669026        7.4839343278
  H         3.7332425271       10.4672998013        2.1524872987
  H         4.2795058823       10.5479621398        0.5683127549
  H         2.5303805012       10.3502950418        0.8834802192
  C        14.3100671603        1.0485287537       -5.3911445110
  N        14.2101143606       -0.2499948209       -5.6680677734
  O        13.0934560545       -2.0217627006       -4.6773099969
  S        15.0414779869        2.0344846735       -6.6868579292
  C        14.6092276550       -0.8559931390       -6.9535137674
  H        14.8392896288       -1.9304648217       -6.6920810957
  H        15.5375098208       -0.4663605079       -7.3919873237
  C        13.4181585587       -0.8015422920       -7.8326729885
  H        13.6701681160       -0.5197679701       -8.8887096286
  H        12.6745300258       -0.2003425122       -7.4133702485
  H        13.0273380558       -1.8123042234       -7.9084273726
