352
 i =    96100, time =    48050.000, E =        98.9587414926
  H        12.0228222483        6.1568158852       32.6706159675
  C        11.1306792984        5.6081460722       32.6446049859
  H        11.5795954403        4.5707907395       32.5037528749
  C        10.1739089876        6.1479828325       31.5985400911
  C        10.3407658438        5.7272803912       33.9613777922
  C        10.6574086616        5.8675418891       30.2043361948
  H         9.2387505844        5.6803352967       31.6715851850
  H        10.0112873036        7.2036669998       31.5827093176
  H        10.9033969885        5.2026819314       34.7535362902
  H        10.1014480160        6.7197287971       34.2641529305
  H         9.3674652867        5.2475276804       33.8766898821
  C         9.7142427571        6.1958138618       28.9961859840
  H        11.0525384186        4.8496541404       30.0171027617
  H        11.5489271961        6.4673328325       30.0717399362
  C        10.3556521891        6.0229234800       27.6229451706
  H         8.8383576702        5.5603522201       29.1323074466
  H         9.3965057418        7.2164556632       29.0456783235
  C         9.4271776182        5.3455396133       26.5723829471
  H        11.2874623727        5.4982303368       27.8460548349
  H        10.7468333119        6.9372249282       27.1406304767
  C         8.0983313684        6.1055983957       26.3783706946
  H        10.0848115065        5.4259722854       25.6252538901
  H         9.1828608296        4.3374084734       26.9337150105
  C         7.0339097927        5.2662482054       25.5813387752
  H         7.6474431401        6.4506812971       27.3363063266
  H         8.3206785163        7.0733106629       25.8746213974
  C         6.8156019214        3.9042658881       26.3064215969
  C         7.6100295331        4.5119875911       24.4573042683
  C         5.7101629016        6.1064867113       25.3040020510
  C         7.1254568378        2.7820617910       25.5692044176
  C         6.3404523315        3.4879654522       27.5666957746
  C         7.6255943449        3.1441614003       24.3662375966
  C         8.1285473706        5.1549567338       23.3202402896
  H         5.9640343629        6.9947325995       24.7885835471
  H         5.5223143637        6.4863573107       26.3024232347
  C         4.6321876287        5.3576988220       24.5852442535
  S         6.7857139380        1.2757005575       26.3061273354
  C         6.3728290259        2.1294098280       27.7341663880
  H         5.8749152366        4.2485933687       28.2089952067
  C         8.0601846024        2.4920132696       23.2300615874
  H         8.1596292965        6.2082018950       23.2073464656
  C         8.4932803036        4.5267088465       22.1206271683
  H         4.8630376349        5.1759889636       23.5759396895
  H         4.5663533061        4.4102565225       25.0657496830
  C         3.3033220492        6.1570643833       24.4969500917
  C         5.9921173472        1.4887253066       29.0630846335
  C         8.5655404940        3.1673071011       22.0719779091
  H         7.9723591716        1.4324726509       23.1437979289
  C         8.9107993665        4.9834793021       20.8506386139
  H         2.6298627848        5.7205944360       23.7436165802
  H         3.5143257215        7.1833317215       24.0944464551
  C         2.5136751101        6.3111017210       25.8583009824
  C         5.8565107036        0.1373451795       29.2588536565
  C         5.6083986162        2.3101600602       30.2417653840
  C         8.9150276833        2.5637598668       20.7190380764
  C         9.2253496092        3.9001505632       20.0442452236
  S         9.1699824176        6.4954539017       20.1362928772
  H         1.5911628671        6.8684409373       25.6103502871
  H         3.0165809738        6.9687185541       26.5670897443
  C         2.2785348586        5.0171919777       26.4499622992
  N         6.3385174465       -0.8301764387       28.3912658782
  C         5.5767557382       -0.4540376274       30.4814218829
  C         5.2333726857        1.7587987871       31.4689792890
  H         5.7073540866        3.3899848280       30.2609140069
  C         7.7004331268        1.8758491314       19.9631172909
  C        10.1965290588        1.7939716806       20.8743254131
  C         9.6599635119        4.3906491019       18.8184643348
  C         9.6943888664        5.7117572068       18.7426644085
  H         1.8058424709        4.2968463345       25.7456490646
  H         3.2919540840        4.5742814890       26.7691281963
  C         1.4839395643        5.0959587102       27.7442957123
  S         6.1255771055       -2.3279467014       29.0154779563
  N         5.6120454837       -1.8473515086       30.4748215675
  C         5.2610753853        0.3050098075       31.6490365324
  H         5.0519644743        2.4864768947       32.2346342316
  H         7.0878756515        1.4126546786       20.7510655322
  H         8.1264168039        1.0504125307       19.4226217112
  C         6.7488396697        2.7952182718       19.2087796841
  H        10.4041932722        1.3210140158       19.8780211242
  H        10.0691771036        0.9774499005       21.5951272580
  C        11.4814768334        2.6310293678       21.2410513712
  H         9.8160554903        3.6547140612       18.0394156046
  C        10.0255669916        6.4781064003       17.4824848141
  H         1.3246626935        4.1016960284       28.1220628025
  H         0.5672686291        5.5684006797       27.3623314987
  C         2.1293619710        5.9152214158       28.8773182368
  C         5.0845533401       -0.3882896893       32.9294327782
  H         7.3526328829        3.1792140684       18.3569526439
  H         6.3222446141        3.5789485694       19.8811645696
  C         5.6018531222        1.9858318585       18.6239185705
  H        11.2768068923        3.2923871483       22.0969601361
  H        11.6851488171        3.2299609968       20.4335909329
  C        12.7507267383        1.8694711867       21.4582376520
  C         9.9770926069        7.9020075044       17.2915911519
  C        10.2055443218        5.7305679063       16.1567563121
  H         3.1838388483        5.9409100020       28.6161941352
  H         1.7685029446        6.8945495853       28.7024493250
  C         1.8844978574        5.4710581229       30.3189222919
  H         5.3006015046       -1.4517051073       32.8879102712
  C         4.7553425081        0.0234619328       34.1698226565
  H         5.1109574500        1.5250249578       19.4858682382
  H         6.0362687185        1.1984879204       18.0381807892
  C         4.7128341910        2.8661579684       17.6550686595
  H        12.6523768115        1.2500330047       22.3751706596
  H        12.8501676813        1.1068451027       20.7361857301
  C        14.0241719225        2.7105386065       21.5421274016
  N         9.7063125246        8.7690321426       18.3888446386
  C        10.1961709635        8.6013077511       16.1033350199
  C        10.4027523182        6.4338740365       14.9597646786
  H         9.9811413048        4.6649419906       16.1520058546
  H         2.7636156963        5.6043295586       30.9606478439
  H         0.9945492487        5.9236133787       30.7798821406
  H         1.7450890650        4.3460203041       30.3547460190
  S         4.3125802935        1.5290023335       34.7634236897
  C         4.6493849117       -1.1218337789       35.1609763318
  H         3.9991489587        3.3607642567       18.2720301058
  H         5.3851456001        3.5823231715       17.2646460733
  C         3.8825233402        1.9378734323       16.7085007294
  H        13.8480779611        3.3905482028       22.3640621161
  H        14.2338412333        3.1931088739       20.5305741544
  C        15.2906190884        1.9414599837       21.6672427618
  S         9.7160586258       10.2776323286       17.8295239561
  N        10.0409448386       10.0046134734       16.2643146435
  C        10.4972229726        7.9149081579       14.8830928494
  H        10.5383656769        5.8680616024       14.0635507814
  C         4.1463624725        0.6933899924       36.3075614799
  N         4.2692332054       -0.6565116794       36.3168036627
  O         4.8595345823       -2.3149793760       34.8891510526
  H         4.5470945296        1.4872966215       15.9819605056
  H         3.2961156312        2.7322172266       16.1238753607
  C         2.9630021548        0.9106203645       17.4560781031
  H        15.1586254645        1.1749830555       22.4355593834
  H        15.5417574202        1.3341546265       20.7447670023
  C        16.4018665661        2.9542086573       22.0736840516
  C        10.8382662400        8.7116906659       13.7014658343
  S         3.6486886435        1.5099962265       37.8478997908
  C         4.1592727497       -1.4470475485       37.5143476878
  H         3.0742346787        0.8382513807       18.5922576056
  H         1.9141314115        1.1469774970       17.2074444109
  C         3.2290164464       -0.5301442888       16.8376693010
  H        15.9799539252        3.8797091421       22.5581272688
  H        17.0109131368        3.2784327052       21.2309124402
  C        17.3558124425        2.2786490910       23.0742760106
  H        10.4685929094        9.7149666446       13.7303043066
  C        11.3077909392        8.3314527047       12.3926776381
  H         3.3013973490       -1.1609965345       38.0748155480
  H         3.8545074082       -2.4644836285       37.2924769022
  C         5.4654401907       -1.5281318130       38.2317069657
  H         4.2231425674       -0.6628648458       16.7541362360
  H         3.0403127438       -0.4129073439       15.7867841285
  C         2.4738140080       -1.7538007360       17.4742556183
  H        17.4525186280        1.1988017361       22.9127491128
  H        18.4438951855        2.5535442072       22.9649377800
  C        16.8798762221        2.3238871656       24.4944044904
  S        11.9603192981        6.8280116192       11.8478276973
  C        11.6910830360        9.4719189439       11.5136598648
  H         6.1557183483       -0.9216641586       37.6658432276
  H         5.4384002678       -1.2457502738       39.3067635834
  H         5.9615457811       -2.4803305321       38.0497827455
  H         2.7475477532       -2.0918156434       18.4727016100
  H         2.6499409109       -2.6712317954       16.8575168393
  H         1.4058635027       -1.4529333185       17.4731018227
  H        17.6834380116        2.4372718143       25.1892742716
  H        16.4564121649        1.4129316459       24.7144691609
  H        16.1766312243        3.1726242468       24.7243696358
  C        12.3429393760        7.6721468819       10.3853998423
  N        12.2899779176        8.9857043298       10.4283648692
  O        11.4328927591       10.6320167598       11.7952934538
  S        12.9980228674        6.8949284409        8.9818024635
  C        12.4744349431        9.8920861447        9.2825536971
  H        12.7701211605       10.8734277050        9.6724515599
  H        13.3277719345        9.6992496274        8.5893332898
  C        11.1208903558       10.1052002199        8.5438362887
  H        11.2159392438       10.8729671246        7.7362548810
  H        10.6544619539        9.2070154661        8.1668387547
  H        10.2867041511       10.4919435403        9.1226708293
  H         3.6515998289        1.5084159308       12.3919414501
  C         3.0676420607        2.3895356808       12.3890644183
  H         3.6936751716        3.1983677355       12.6476758851
  C         2.5202816225        2.5828772444       11.0008397017
  C         2.0242942859        2.1520524718       13.4580662664
  C         3.6671324750        2.8390579584        9.9162958301
  H         1.9253702439        3.5323139259       11.0175849413
  H         2.0428532654        1.6235510171       10.7107532888
  H         2.4011746585        2.0199132190       14.4775267057
  H         1.3212190863        1.3739165965       13.1336140385
  H         1.3479745137        3.0586399460       13.5933984813
  C         4.6406890466        1.6570502552        9.7696628202
  H         3.1533215460        2.7601598647        8.9240736171
  H         4.1576400733        3.7846796781       10.0295137674
  C         5.4360174290        1.7885871844        8.4699554986
  H         4.1517050109        0.6724455973        9.6408860489
  H         5.3104009034        1.6981975929       10.5932663733
  C         6.6342543690        2.7836180775        8.6798785390
  H         4.8538023887        2.2531547165        7.6956380343
  H         5.6975230350        0.7744483925        8.1322775271
  C         7.8508750743        2.0659354927        9.2735319984
  H         6.9788032445        3.1115603991        7.7168524485
  H         6.4135256808        3.6715010321        9.2916950342
  C         9.1388128719        2.8452592281        9.4388423111
  H         8.0198898997        1.2136879334        8.6148435928
  H         7.5499904771        1.5101114743       10.1733007839
  C         8.7375861099        4.1719950503       10.0788209306
  C         9.5356691947        3.5632213348        8.1521961444
  C        10.2649669344        2.1078671814       10.1909466785
  C         9.0239221773        5.2247785417        9.2641539365
  C         8.2751622106        4.6431262983       11.2989057603
  C         9.5293690447        4.8722141994        8.0380584670
  C         9.9246791477        2.9094644111        6.9107031631
  H         9.8899365173        1.7997098867       11.1628497897
  H        10.6048804019        1.2038085909        9.6970808060
  C        11.4678934266        3.0582425533       10.4747740984
  S         8.6607829876        6.7864417968        9.9200023595
  C         8.1683581603        6.0036331392       11.4020762592
  H         8.0027115543        3.9499171391       12.1444358487
  C         9.8258252776        5.4960695989        6.8303017497
  H        10.1294896220        1.8394040929        6.9877806224
  C        10.2276548336        3.5247708607        5.7073522989
  H        11.1911997363        3.9612589146       11.1073367998
  H        11.8132812596        3.3956600983        9.4845140307
  C        12.6404092478        2.4077949127       11.2772488682
  C         7.6391164507        6.7307110686       12.6455654745
  C        10.2299578724        4.8657877570        5.6549748503
  H         9.8344499825        6.5420494669        6.8860932166
  C        10.7477298110        3.1316950170        4.5083040006
  H        13.5786667287        2.5807458908       10.8359926832
  H        12.5029245118        1.4183980762       11.4643238387
  C        12.7778471191        3.0503208139       12.6613288545
  C         7.5490247567        8.1411138929       12.7964667399
  C         7.2027310578        5.8797373381       13.7937216031
  C        10.6876955627        5.5136922484        4.4226308869
  C        10.9599866765        4.2147488849        3.6922313787
  S        11.0613300088        1.6235359698        3.7764205966
  H        13.7678767102        2.8413968277       12.9961617511
  H        12.8450773231        4.1237348631       12.6501630668
  C        11.7741739543        2.4298979804       13.5849984651
  N         7.7332391359        9.0914673669       11.8074057718
  C         7.4729785220        8.7177683595       14.0377204041
  C         6.8961645485        6.5160369345       14.9561244140
  H         7.2834858763        4.8114108021       13.7667008722
  C        11.9814570363        6.3547840135        4.6305606787
  C         9.4378741910        6.2152568939        3.8286239082
  C        11.3759606638        3.8529240503        2.4195777740
  C        11.4992579850        2.4875539984        2.3317529544
  H        11.8913337811        1.3580453094       13.4875199485
  H        10.7995627113        2.7043871642       13.2772779671
  C        11.9621445831        2.9769266519       14.9820386288
  S         7.9002403795       10.5693571275       12.4389192768
  N         7.6994672965       10.1214337849       13.9747137735
  C         7.0300178367        8.0040921940       15.1473296270
  H         6.6128135451        5.9060525250       15.8493247985
  H        11.8454947513        7.2782609739        5.2597010335
  H        12.3142668248        6.7510213114        3.6797120541
  C        13.0923769815        5.6140827979        5.2945229434
  H         8.8102287993        6.6450840249        4.5731185320
  H         9.8865903182        6.9812918324        3.1294270049
  C         8.4184567164        5.3206187420        3.0650468092
  H        11.5269857437        4.5987835592        1.6663170787
  C        11.8649780054        1.7409853496        1.0316985092
  H        12.0654354253        4.0873601288       15.0323497918
  H        10.9580625505        2.8510767187       15.5458279891
  C        13.0598429925        2.3025801261       15.8564519413
  C         6.7215377420        8.7560124727       16.3307134054
  H        12.8615802060        5.2216709061        6.2828004158
  H        13.4094003723        4.8033706466        4.6369152437
  C        14.3817946693        6.3941270370        5.3717936651
  H         7.9816706038        4.5782602200        3.7736923223
  H         8.8514420051        4.7966112102        2.1580318952
  C         7.2859597660        6.2012981621        2.5119084119
  C        11.9405565212        0.3143980684        0.8866990781
  C        12.0153093546        2.5868418931       -0.1918204340
  H        14.0061634194        2.5830620112       15.3499308878
  H        13.1692633928        1.1882114216       15.7245791808
  C        13.1196504184        2.8311662792       17.3371601205
  H         6.7976419871        9.8350574481       16.3284983394
  C         6.3472859682        8.3702038478       17.5487700580
  H        14.4167960707        7.0490639528        6.2303107599
  H        14.6040445561        7.1067697694        4.5856918039
  C        15.5420530318        5.4591878820        5.3426611956
  H         6.8775523169        6.7684354197        3.3272727788
  H         7.7275209063        6.9289704432        1.7853428048
  C         6.3209881673        5.2417127583        1.8356081709
  N        11.6287526430       -0.5629089657        1.9242022745
  C        12.2318307807       -0.3159736432       -0.3100391038
  C        12.3602564918        1.9650528862       -1.3758772854
  H        11.7682120172        3.6439242677       -0.1674700520
  H        13.1523054545        2.0795137872       18.2373758813
  H        12.2840389490        3.5118577017       17.4881442212
  H        14.0762683864        3.3572913578       17.5001007337
  S         6.1453472534        6.8180738845       18.2166921058
  C         6.1542801905        9.4209640369       18.6432180075
  H        15.3663415734        4.5853969456        5.9479368116
  H        15.9149088554        5.2129768772        4.2626714280
  C        16.7309144331        6.1350219439        6.0180234348
  H         6.2288804855        4.2601765159        2.3833364660
  H         6.6445835851        4.9528199461        0.8527495398
  C         4.8856206869        5.7515362629        1.6956761474
  S        11.9027687788       -2.0316386659        1.3281345051
  N        12.2541477753       -1.6873228482       -0.2259151869
  C        12.4815204084        0.4487735129       -1.4734270552
  H        12.5556339759        2.6567608743       -2.2067885881
  C         5.8846495731        7.5401551717       19.8048454994
  N         5.9366272717        8.8781621482       19.8287276409
  O         6.1652457679       10.6334548731       18.4661027637
  H        17.1443089452        6.9880087901        5.4525217027
  H        16.3898353865        6.5093707874        6.9620379173
  C        17.8664757408        5.2520812058        6.2725622037
  H         4.2303051346        4.9150562744        1.5293573483
  H         4.5202744537        6.1862620342        2.6476489518
  C         4.7799008217        6.7245625214        0.5398901182
  C        12.5303969731       -0.3896404413       -2.6340640409
  S         5.7519839427        6.5975031828       21.2449396006
  C         5.9767001681        9.6787682667       21.0835425416
  H        17.4688602183        4.3779599276        6.7517897503
  H        18.3476156069        5.0561212013        5.3598045565
  C        18.9134518986        5.8250782774        7.1885134033
  H         4.4011646375        6.0284548262       -0.2377916448
  H         5.7557454023        7.0574307509        0.3119581869
  C         3.6809251004        7.8181584854        0.7771083424
  H        11.9854543220       -1.3644900958       -2.6132549040
  C        13.1728219906       -0.1984577411       -3.8436091848
  H         5.4644587147        9.2913574365       21.9880296556
  H         5.4115209285       10.6437639200       20.8890520132
  C         7.5477574225       10.0433770245       21.5071920512
  H        18.8810469090        5.2621834087        8.0868104316
  H        18.5004348830        6.7363585350        7.6288241924
  C        20.2779075795        5.8395707563        6.6187411160
  H         3.1411709714        8.0239463347       -0.1275630603
  H         2.9709287370        7.3528650925        1.4589588455
  C         4.2959798101        9.0292478912        1.5032786251
  S        13.7948501973        1.3493485468       -4.3667880323
  C        13.1647902932       -1.2665767058       -4.8635047803
  H         7.8177559191        9.2799188338       22.2237669356
  H         7.5700863312       11.0101197378       22.0348030145
  H         8.2298201349       10.0173822137       20.6286135995
  H        20.1918392884        6.4316152762        5.7281054108
  H        21.0159485210        6.2543146456        7.2670925469
  H        20.5439960244        4.7982829996        6.4667605141
  H         3.5131559953        9.4532103655        2.2033525523
  H         5.2052977362        8.6970410833        2.0741219605
  H         4.5032670869        9.8702336507        0.8565534608
  C        14.0507163082        0.5403425517       -5.8588102712
  N        13.7999679481       -0.7609610877       -5.9563868984
  O        12.8277649891       -2.4021927442       -4.7220233248
  S        14.7147605621        1.3050844071       -7.2757242985
  C        14.0654684874       -1.5610816362       -7.1248884061
  H        14.3658482447       -2.5985084188       -6.8399240407
  H        14.9301362327       -1.2208025400       -7.6831286380
  C        12.7902351361       -1.7423269487       -7.9183127382
  H        12.0214922676       -1.1156344264       -7.5245217574
  H        12.4228436047       -2.7452759126       -7.6942098383
  H        12.8915610833       -1.6695261092       -8.9692695848
