352
 i =    92600, time =    46300.000, E =       100.3043530082
  H        11.7427690603        6.7996898968       32.6640425543
  C        11.2609903226        5.8836965934       32.6540359215
  H        12.0354526810        5.1941686086       32.4960134785
  C        10.1728030494        5.8393479526       31.5922555531
  C        10.6708049420        5.6475596488       34.0837466295
  C        10.8730781816        5.9914724033       30.2860841185
  H         9.8059690015        4.8350300958       31.7594222432
  H         9.3694068749        6.6138479298       31.5422305089
  H        11.4081198391        5.3561631353       34.8002902657
  H        10.3339838191        6.6622036534       34.3415114557
  H         9.8739164698        4.9166727049       34.0788342062
  C         9.8753870874        5.7977397001       29.1716298178
  H        11.6870371845        5.3528661138       30.2275610965
  H        11.3640337600        6.9714030194       30.2210486501
  C        10.6301600442        5.6779961866       27.8029919195
  H         9.3007169417        4.9251088947       29.3275413476
  H         9.1670309601        6.6181183862       29.1605193500
  C         9.5742393910        5.1004718733       26.7954202116
  H        11.5073301088        5.0367291395       27.7327327911
  H        10.7497846716        6.6978392623       27.3813386076
  C         8.3357850932        5.9730211971       26.5351861200
  H        10.1572413096        4.8141821588       25.8900376797
  H         9.2587289076        4.1585300861       27.1908334546
  C         7.1972210689        5.2372290217       25.7670416092
  H         7.8518734194        6.3936641284       27.4458842320
  H         8.7586497174        6.7386352273       25.8617501694
  C         6.8363714536        3.8941750786       26.4190912728
  C         7.6594340856        4.5702635985       24.4834710409
  C         5.9549252220        6.0962840130       25.3789483170
  C         7.1183215039        2.7844364046       25.5769251732
  C         6.4214853777        3.5057116474       27.7327741143
  C         7.6314593549        3.2385729730       24.3980406871
  C         8.0402781696        5.1726870541       23.2866129014
  H         6.2450379033        6.7941658515       24.5940864157
  H         5.6169594551        6.5650529491       26.2678208695
  C         4.8387809989        5.3139148698       24.7410982845
  S         6.6995994943        1.2477704762       26.3031300713
  C         6.2240545641        2.1418001874       27.7671965402
  H         6.1136818814        4.1766527037       28.4790080672
  C         8.0855099339        2.6202347720       23.3207909301
  H         7.9580095656        6.1950311699       23.1684535444
  C         8.5148286803        4.5022926874       22.1680233441
  H         5.1362427497        5.1080295887       23.7341697525
  H         4.6700796392        4.3789617640       25.2463281744
  C         3.5238247992        6.1499526830       24.6864374241
  C         5.8118337390        1.4289369976       29.0659188827
  C         8.5858363933        3.1839523762       22.1090881398
  H         7.8338047809        1.5750252547       23.2203188529
  C         8.9471661442        4.9001901602       20.8687749599
  H         2.9345621781        5.6690917835       23.9105507057
  H         3.8052960455        7.1145870031       24.3150732038
  C         2.7309910321        6.2488986000       25.9690451992
  C         5.7910392490        0.0392489278       29.2729179630
  C         5.2280259388        2.2363664671       30.1236001595
  C         9.0430375354        2.4732609492       20.8844657768
  C         9.2535499240        3.8113828278       20.0767375958
  S         9.0426074322        6.4837993142       20.0912761462
  H         2.0200659492        7.0819103098       25.9622579210
  H         3.3692054001        6.5213067672       26.7769460930
  C         1.9957867706        4.9983333148       26.5036873457
  N         6.0606002552       -0.8360041511       28.3149421794
  C         5.4250189697       -0.5581331863       30.4541744095
  C         4.9008930821        1.6932126204       31.3586976565
  H         5.2685475046        3.3092605993       30.0612600441
  C         7.9504430361        1.4991951924       20.3725148507
  C        10.3452767062        1.6979110865       21.1463078505
  C         9.6279250606        4.2470028713       18.8253905041
  C         9.5583273285        5.6171223793       18.6802229766
  H         1.1921997318        4.5869930041       25.9391556539
  H         2.7325464231        4.2387728858       26.5575482046
  C         1.5056577202        5.1898876540       27.9589543111
  S         5.9256307766       -2.3634785965       28.9144946270
  N         5.6713737702       -1.9252987855       30.4893207676
  C         5.0122337765        0.2084944496       31.6242510505
  H         4.7617617675        2.2939877371       32.2229349524
  H         7.6972891260        0.7728161737       21.1117724023
  H         8.2202170854        0.8717506655       19.5608356990
  C         6.6672547249        2.2713442320       20.0347008403
  H        10.6809725752        1.1663134132       20.2748857811
  H        10.3115840272        0.8949541922       21.9265662487
  C        11.6527374518        2.4766055003       21.5137564950
  H         9.9755251277        3.4916174235       18.1628975223
  C         9.8932208224        6.3884643610       17.4322428046
  H         0.7893288904        4.3139872478       28.1091080117
  H         0.9369403635        6.0766092634       27.9241044185
  C         2.5450719033        5.3308757457       29.0956119552
  C         4.7641129198       -0.3896727525       32.9180360156
  H         6.7581113759        3.2817412139       20.3317033119
  H         5.7236573136        1.7456723639       20.4630321313
  C         6.4678499657        2.3678472000       18.5139142264
  H        11.4500060823        3.1984539014       22.3191903050
  H        12.1018410222        2.9553602047       20.6508908596
  C        12.7986441434        1.6424067012       22.0675802902
  C         9.8460790376        7.8175978881       17.2884178863
  C        10.2349713308        5.6149525885       16.1912580617
  H         3.2803804996        4.5161555986       29.0321778437
  H         2.9565607435        6.3317871440       28.9852186869
  C         1.8508691648        5.5129235057       30.4233261617
  H         4.7236887227       -1.4743694039       32.9580621735
  C         4.5656970975        0.1135606821       34.1843007838
  H         6.6148201691        1.3685464755       18.0332774902
  H         7.1036693188        3.0883814171       17.9622803292
  C         5.0319430878        2.9051509944       18.3119345356
  H        12.4798271610        0.8397136296       22.7433547227
  H        13.2539905931        1.1170895830       21.1870528108
  C        13.8572392985        2.4074509033       22.8138500545
  N         9.5916023125        8.7038239637       18.3462394764
  C        10.2750628864        8.4807681289       16.1302950684
  C        10.5327690838        6.2532340527       14.9564610496
  H        10.3180754261        4.5788361750       16.2066697330
  H         2.0403591394        6.5322153622       30.8760771974
  H         0.7132174435        5.3337171596       30.3837201115
  H         2.1315619381        4.7159632881       31.0633623504
  S         4.3731821006        1.7193468227       34.6993462146
  C         4.5226719123       -0.9099562948       35.2714197215
  H         4.5712119208        3.2124664889       19.2556789154
  H         5.1872565999        3.8639958811       17.7410635657
  C         4.0214558451        1.8403965460       17.7237544503
  H        13.3701995107        2.8054431452       23.6617383226
  H        14.1830024658        3.2198716965       22.2247699344
  C        14.9853035297        1.4133264492       23.2398600131
  S         9.6971356410       10.1952346488       17.7121435128
  N        10.2215090287        9.8915541674       16.2446965075
  C        10.5532412750        7.7159271461       14.9104752394
  H        10.6281036543        5.4832730236       14.1457492127
  C         4.1081946229        0.9958544547       36.3326872800
  N         4.1028545730       -0.3390607843       36.4073574635
  O         4.6531544252       -2.1171125863       35.1052575370
  H         4.4139583741        1.3983704552       16.8002444368
  H         3.1123009818        2.2511928058       17.3004989266
  C         3.6481283132        0.7777837568       18.7131124362
  H        14.5272255997        0.7381738962       23.9676739723
  H        15.2835371796        0.7653688934       22.3728792300
  C        16.1472951939        2.1884276612       23.7085697863
  C        10.7633221298        8.5075518570       13.7348405773
  S         4.0067855104        1.9338157535       37.8246392364
  C         4.1812510916       -1.0838784297       37.7018548098
  H         4.6151108153        0.2815467123       18.9843633611
  H         3.2810602096        1.3194453070       19.6256674622
  C         2.6738234867       -0.2105860951       18.0978207002
  H        16.7061298589        1.5369600365       24.4436447656
  H        15.8013786367        3.0426243216       24.2857356578
  C        17.0455463021        2.6679153372       22.5371742081
  H        10.5159095202        9.5397741303       13.8539022125
  C        11.1899124019        8.1806287623       12.4476150710
  H         3.4649438452       -0.7021782069       38.4274158612
  H         3.8824513030       -2.1245620668       37.4917173428
  C         5.5447937606       -0.9285402860       38.3151507659
  H         2.9061071905       -0.2897196277       17.0492379972
  H         1.7404063615        0.2841459008       18.2501823333
  C         2.7166588248       -1.6226401424       18.7313722005
  H        16.4455971136        2.4414108074       21.6479283314
  H        17.1931970040        3.7550234329       22.6660060497
  C        18.3903167537        1.9005211852       22.5246570215
  S        11.9124022669        6.7004716084       12.0180551206
  C        11.2535613994        9.2000887887       11.4202791077
  H         5.7352159715       -1.5697229086       39.1220642615
  H         6.3111712865       -0.9239013633       37.5410416438
  H         5.5903059360        0.0908760683       38.7671783337
  H         3.4375259200       -2.1880380022       18.1474054212
  H         1.7147967713       -2.0243482660       18.8029669319
  H         2.9808263552       -1.5852209789       19.7759722873
  H        18.4715996428        1.3830997072       23.4177975797
  H        19.2893984017        2.4788689310       22.4842913501
  H        18.4644992853        1.1085549444       21.7369131641
  C        12.1697913860        7.4893869208       10.4184912126
  N        11.9375304543        8.7935190784       10.3585288357
  O        10.9290482249       10.3669193894       11.6234230577
  S        13.1127368109        6.7991242056        9.0301952179
  C        12.1101259551        9.6682356396        9.1567712944
  H        12.1226483824       10.7035550655        9.5741410000
  H        13.1027701760        9.5109060158        8.7845427162
  C        11.0088767526        9.5817367604        8.1037613429
  H        11.0050581888        8.7116108222        7.4285927937
  H        10.0646566525        9.5687893330        8.6487512835
  H        10.9218217308       10.5228247109        7.5731862589
  H         4.5825621698        1.1860221953       12.6584063006
  C         4.0593323727        2.0884250513       12.9866417630
  H         4.9131282399        2.7770183467       13.1113460381
  C         3.2340995744        2.4190916316       11.7024351830
  C         3.1701461032        1.8560150461       14.2061682309
  C         4.0860468727        2.7026788641       10.5106644870
  H         2.6902568332        3.3859641088       11.8439749124
  H         2.5264055056        1.6941497469       11.4440531161
  H         2.1271860423        1.9225089372       14.0645579089
  H         3.4115362891        2.5864509114       14.9547176252
  H         3.4854203822        0.9097769394       14.5480440502
  C         4.7630769138        1.4459257869        9.9619593306
  H         3.5009634951        3.1309121067        9.7102127265
  H         4.7624590693        3.5325088970       10.8755275682
  C         5.4587632647        1.6386830348        8.5992334728
  H         3.9217876702        0.7641405805        9.8727545239
  H         5.3772576026        0.8965765209       10.7174608671
  C         6.7614036309        2.4115964967        8.5955418207
  H         4.8029963238        2.1440015457        7.8710809496
  H         5.4280566146        0.6899194529        8.1521634313
  C         7.9631177218        1.9433107949        9.3750692653
  H         7.1508354739        2.2385131832        7.5551545877
  H         6.4709232021        3.4333405646        8.7280082009
  C         9.1694765681        2.9562583769        9.5361766006
  H         8.3910781494        1.0644948506        8.8711906969
  H         7.5648608322        1.6147158720       10.3873176085
  C         8.6810199948        4.2159968256       10.1609864563
  C         9.5854902350        3.6101245583        8.2573311402
  C        10.3142629677        2.3917726066       10.4428025156
  C         8.9593205302        5.2880718509        9.3504918468
  C         8.2010949460        4.5985991533       11.4339036606
  C         9.4099884586        4.9371021790        8.1029284603
  C        10.0310318785        2.9427771291        7.0525038004
  H         9.9135816779        1.8660869258       11.2727250808
  H        10.7323360144        1.7025870312        9.8101076681
  C        11.4303973408        3.3256744365       10.7781756614
  S         8.6799132038        6.8098311215       10.1631123745
  C         8.1717064408        5.9686921376       11.6015793550
  H         7.8766561142        3.8757861161       12.1281789377
  C         9.9078601444        5.6049634715        7.0380825901
  H        10.1331888875        1.9111717625        7.1712297472
  C        10.3404780678        3.5562603266        5.9108102369
  H        11.0795928744        4.1274787927       11.4238691344
  H        11.9681441608        3.8541079172       10.0112858465
  C        12.5608598892        2.6053918570       11.5783458317
  C         7.7198830794        6.6992967108       12.8251413956
  C        10.3000981142        4.9216832624        5.8536653883
  H         9.8502077588        6.6618114419        6.9866091474
  C        10.7735028728        3.1436869095        4.6736547555
  H        13.5431258859        3.0652615878       11.4115628763
  H        12.6779581634        1.5476314271       11.3028894196
  C        12.1935575529        2.6197125494       13.0962840932
  C         7.7207255216        8.1431917204       13.0514556219
  C         7.3432215632        5.9420442115       14.0214094864
  C        10.7578347425        5.6013454828        4.6031851196
  C        11.1126991237        4.2459563366        3.9133234839
  S        11.1617458742        1.6201491894        3.8910673618
  H        11.7859499584        3.6262373523       13.3309672045
  H        11.3395816830        1.9850094157       13.3187988318
  C        13.2537832930        2.3832802127       14.1338160259
  N         8.0810874707        9.0955084144       12.1389235964
  C         7.3211009642        8.7352001959       14.2239228002
  C         6.9968423513        6.5727853385       15.2018677609
  H         7.4521673577        4.8707073604       14.0844147040
  C        12.0586327515        6.4909292334        4.7832831967
  C         9.5961472231        6.2833792697        3.8635214912
  C        11.4649501319        3.8632763671        2.6455060421
  C        11.5194414623        2.5235894401        2.4945231550
  H        14.1076923837        3.0409871999       14.0557516517
  H        13.7108737302        1.4179768882       14.0233640019
  C        12.6208132315        2.4039941807       15.5486991042
  S         7.7199832379       10.5880593290       12.7090438114
  N         7.3878756377       10.0921508202       14.2662398676
  C         6.9796834866        8.0060620863       15.3704256800
  H         6.7426979427        5.9275913941       16.0301225174
  H        11.7320600796        7.2188117703        5.5599244217
  H        12.3145932409        7.0753316304        3.9483523761
  C        13.2300741997        5.6412657993        5.3442379852
  H         9.1441887319        6.9036037262        4.5836732564
  H         9.9847209140        6.8198569228        2.9473788754
  C         8.4714953510        5.4526793198        3.3889885223
  H        11.8598816263        4.6131535782        1.9394578598
  C        11.7836656699        1.7952287627        1.2183823216
  H        12.1911930654        3.4073496825       15.7715864137
  H        11.7901903825        1.7108972227       15.6663453573
  C        13.5234983666        2.0571715841       16.6870737947
  C         6.7244295925        8.7453585755       16.5598077361
  H        12.7617353599        4.9729166882        6.1232884602
  H        13.6306371967        4.7975386999        4.7294997410
  C        14.4217678150        6.5404620212        5.8023475724
  H         8.0357770477        5.0086074166        4.2848227015
  H         8.8820782284        4.5858906185        2.8090551738
  C         7.3846875942        6.2150084768        2.7478738095
  C        11.9027161861        0.3689986915        1.0696053312
  C        11.8723404890        2.5801938873       -0.0679963216
  H        14.3233180043        2.7547162059       16.6146168242
  H        13.8536236338        0.9818712678       16.4123404100
  C        12.7729903080        2.2376353472       18.0007563008
  H         6.9856693229        9.8028129280       16.6222948243
  C         6.3122617110        8.3880324818       17.7956708926
  H        14.1273741072        7.4728000356        6.3818620303
  H        14.9129576672        6.8543700179        4.8979809605
  C        15.4164054051        5.7431951446        6.6359660346
  H         7.0553301234        7.0676180206        3.3703654288
  H         7.6661100240        6.5878943130        1.7616659112
  C         6.0875530493        5.4074866875        2.3759163911
  N        11.6298066149       -0.5597618262        2.0968722583
  C        12.1939539351       -0.2464230526       -0.1414914517
  C        12.1102262913        1.9940301091       -1.2957606101
  H        11.6081721805        3.6114493877       -0.0741654782
  H        11.8829836623        1.6378331763       17.8543971716
  H        12.3429586916        3.2230675626       18.1248875279
  H        13.4806211826        1.9435723290       18.8502310615
  S         5.9448091916        6.7545756133       18.3629334949
  C         6.2894197154        9.4068499296       18.8874963286
  H        15.7439251382        6.4780139439        7.4198405796
  H        14.9328609081        4.7806883811        7.0181408595
  C        16.6235029330        5.5919401304        5.7882482487
  H         5.8711880902        4.8407464275        3.2710636332
  H         6.3837432909        4.6935871922        1.6395709113
  C         4.8676562604        6.2902907607        1.9635504319
  S        11.8226795788       -2.0740392024        1.4411367652
  N        12.2994517137       -1.6464560646       -0.0644840968
  C        12.3869697344        0.4579359762       -1.4013704971
  H        11.9778126967        2.5627830913       -2.1803544400
  C         5.6455338074        7.4712262088       19.9308078350
  N         6.0400302986        8.7615036300       20.0836734943
  O         6.6756359447       10.5614443885       18.7247806261
  H        16.4162038502        4.9736779384        4.9085197042
  H        16.8374612022        6.5766560674        5.5795631998
  C        17.7211596498        4.9634643963        6.6844080582
  H         4.2528821974        5.6784103491        1.2832686163
  H         4.2374427854        6.4074128300        2.8945427710
  C         5.1230479055        7.7168861387        1.3566581543
  C        12.7671307821       -0.2882285411       -2.5685878612
  S         5.6670062506        6.4196501753       21.3756552107
  C         6.1296943947        9.3141384635       21.4507615869
  H        17.3587688799        4.2374078862        7.4253509059
  H        18.4072162679        4.2765692559        6.1388764986
  C        18.5698035678        6.0042139665        7.3088235829
  H         5.6748945093        7.6089216211        0.3892784037
  H         5.9362436327        8.1989550500        1.9838094087
  C         3.9028778094        8.6585679892        1.1848280515
  H        13.0531713461       -1.3388357212       -2.4235404129
  C        13.3259480228        0.1773461292       -3.7029552588
  H         5.2641446278        9.0087047894       22.1793628921
  H         5.8928927723       10.3804883611       21.2543588492
  C         7.6504811544        9.1794657135       21.9549220586
  H        18.9931144479        5.4212388008        8.1683337263
  H        18.1093296749        6.9392565008        7.6103737282
  C        19.6305114059        6.4295805143        6.2877975427
  H         4.0205181917        9.2589486005        0.2719326646
  H         3.0638884443        7.9605048479        1.0451318510
  C         3.7520517675        9.5878589897        2.4126543217
  S        13.8030602802        1.7615293017       -3.9974861669
  C        13.4858612268       -0.7319902519       -4.7820432441
  H         7.9018400237       10.1911220717       22.3238414400
  H         8.3037745836        8.8103164930       21.1499785628
  H         7.7777880151        8.4193593697       22.7939409712
  H        20.1932918445        5.5512615391        5.9549763792
  H        19.0846276582        6.8429739013        5.4581056386
  H        20.4332702397        7.0544852218        6.6407130840
  H         3.2584593065        9.2007299500        3.3169652517
  H         4.6885751297        9.8989367203        2.8013383804
  H         3.1988207922       10.5316466861        2.2182629480
  C        14.1500687147        1.1586659798       -5.6376310939
  N        14.1733489818       -0.1859783152       -5.7853898042
  O        13.2044133949       -1.9212261755       -4.6664098500
  S        14.9614362175        1.9957247382       -6.9171774151
  C        14.4427847930       -0.8897130832       -6.9948183578
  H        14.6779200079       -1.9394653232       -6.7983931620
  H        15.3145719583       -0.6494100751       -7.5803748208
  C        13.2337635216       -0.9131780539       -7.9317123457
  H        13.1641267494       -1.8886189380       -8.5423445452
  H        13.4243990684       -0.0804270250       -8.5858044422
  H        12.2560908089       -0.7578981022       -7.4475780204
