352
 i =    56100, time =    28050.000, E =       100.1146406926
  H        10.3451901517        4.2147472040       31.4961389229
  C        10.4712302464        5.1152173218       32.1275748415
  H         9.4901768567        5.5237134658       32.2653599291
  C        11.4160579207        6.0146032504       31.3113648863
  C        11.0884934475        4.7683332490       33.5201960484
  C        11.6864901359        5.4545225475       29.9220781998
  H        11.0824829521        7.1023808931       31.2009582542
  H        12.3450679783        6.0420625603       31.8648806010
  H        10.5901293664        5.3320161470       34.3272421695
  H        10.9524193884        3.7104804277       33.8360058221
  H        12.2181119301        4.8247333986       33.5484687684
  C        10.4796593741        5.5712759070       28.9380363046
  H        12.0134376730        4.3750734841       30.0082008297
  H        12.4416801390        5.8866768210       29.3244940909
  C        10.8343588473        5.2178947941       27.4419966415
  H         9.7296748448        4.8486543997       29.2444576332
  H        10.1164032485        6.5023950574       29.1797651068
  C         9.6914482163        4.4743164259       26.7367280078
  H        11.7966613792        4.6504956324       27.4489212767
  H        10.9312329162        6.1455414341       26.8029963857
  C         8.5536738483        5.3856480025       26.2944697019
  H         9.9788007212        4.0684486847       25.7065306238
  H         9.4077777881        3.6717425944       27.4641096449
  C         7.4373919746        4.5522117950       25.6169599249
  H         8.1953099485        5.8717552153       27.2708585399
  H         8.9365824907        6.2545947535       25.7298631875
  C         6.9771419083        3.3106516931       26.2695539331
  C         7.8575460265        3.9516693111       24.4035112468
  C         6.2482446184        5.4579040691       25.3329219304
  C         7.2104004974        2.2050343418       25.5018269004
  C         6.3523422970        2.9438497142       27.5030770791
  C         7.7173736880        2.5999930042       24.2468278495
  C         8.2584085465        4.6640183764       23.2997523510
  H         6.5057529291        6.3837586619       24.7550725475
  H         5.7985570504        5.7135085478       26.4133049048
  C         5.0430547732        4.7540123688       24.6423919280
  S         6.7187055371        0.7564670948       26.2128556399
  C         6.1002812302        1.6038240544       27.5827555359
  H         6.2088183669        3.7644984596       28.1335328421
  C         8.0842084071        2.0447406233       23.1023712312
  H         8.1754365419        5.6579214161       23.5800571630
  C         8.6783675123        4.1380670949       22.1147935187
  H         5.3327087741        4.6118685213       23.5679064201
  H         4.8962349667        3.7312869730       24.9493842765
  C         3.7333359069        5.5772800210       24.7113654266
  C         5.5809422468        0.9441504255       28.7961716280
  C         8.5420958712        2.7845520535       21.9270644853
  H         7.8734198038        0.9926822981       22.9772631772
  C         9.0012633432        4.5719679230       20.8789950837
  H         3.2449773594        5.1821967201       23.8211023755
  H         4.0671697307        6.5447277025       24.3382127248
  C         3.0762731363        5.6271902485       26.0642203251
  C         5.7331518513       -0.3807029342       29.1027287128
  C         5.1100242633        1.8107139964       29.8841721814
  C         8.7943128625        2.2057246504       20.5926354156
  C         9.0964675496        3.5887214183       19.9304715692
  S         9.2779789919        6.1428870770       20.1366320295
  H         2.1589127804        6.0359741901       25.7825863327
  H         3.5549949001        6.3234179712       26.7604271516
  C         2.8943221084        4.3021899084       26.7975387936
  N         6.2245088258       -1.3043012877       28.1381789460
  C         5.3939526670       -0.9518008219       30.3134145108
  C         4.7254349619        1.3082762822       31.1422837403
  H         4.9300552772        2.8831035541       29.7133571153
  C         7.6409206713        1.4502248909       19.8708569153
  C        10.0393149873        1.3502509374       20.6257127900
  C         9.4261997150        3.9915562228       18.6034825227
  C         9.6689517634        5.3331751579       18.5488173791
  H         2.6622794116        3.5716227640       26.0092116265
  H         3.7985090273        3.9024865045       27.3517830316
  C         1.8099944138        4.3921136866       27.8680360080
  S         6.2510628966       -2.7728869983       28.7799793089
  N         5.7055943970       -2.3456312156       30.2951516998
  C         4.8924442083       -0.2015558480       31.3848685277
  H         4.3460602902        1.9413555681       31.9585866276
  H         7.2461173989        0.8215734287       20.6558299594
  H         8.0313017686        0.7780873595       19.0681475667
  C         6.4284188363        2.2515789713       19.4379725443
  H        10.5279778929        1.1413819768       19.6852653767
  H         9.8339959209        0.3804624277       21.0593296358
  C        11.2935182528        1.9283167158       21.3924431990
  H         9.5600039393        3.2526876449       17.8726886062
  C        10.0191959276        6.0353080499       17.3073114309
  H         1.1100183096        3.5523831515       27.8742989706
  H         1.1795256101        5.2822800568       27.6408485495
  C         2.3366457182        4.6919176215       29.2935311832
  C         4.5947953638       -0.8632680628       32.6209655048
  H         6.7052690158        3.0455989304       18.6853796589
  H         6.0382209965        2.8485493396       20.3031557543
  C         5.3726505804        1.3243020352       18.7892804744
  H        11.0030253221        1.7088296830       22.4010770449
  H        11.3275305549        3.0092607392       21.4871485962
  C        12.6418560631        1.2079157395       21.1382142639
  C        10.0050584654        7.4532445434       17.1409216300
  C        10.1536056556        5.2493151825       16.0061104808
  H         2.8452649311        3.8128908210       29.6631644229
  H         3.0115056862        5.4787769963       29.1927343857
  C         1.2717847533        5.1874217954       30.2824181913
  H         4.4742460334       -1.9179174194       32.4528644869
  C         4.3497440527       -0.4235038226       33.8832073998
  H         4.8604787607        0.8425624834       19.6647168306
  H         5.9701068355        0.5811050668       18.1794187971
  C         4.2463189441        1.9778706250       17.9693033424
  H        12.6188664417        0.3084894559       21.8056923615
  H        12.8305426441        0.8839878575       20.0669568621
  C        13.7593858786        2.1063873625       21.5585859492
  N         9.7737123458        8.3480106693       18.1376640453
  C        10.3122203285        8.0660231945       15.9384340200
  C        10.3505408404        5.8650688956       14.8115809368
  H        10.3368622458        4.1682713515       16.0213312196
  H         1.7428667677        5.4875758637       31.2140775531
  H         0.5452559489        5.9261453821       29.8147183766
  H         0.6073318318        4.4025948125       30.5388028597
  S         4.3118038399        1.2272094014       34.3779895731
  C         4.0762734216       -1.4994561712       34.9291536590
  H         4.1389591057        3.0478086490       18.3087062842
  H         4.4686062736        2.0340404771       16.9100878802
  C         2.9118278738        1.2078394986       18.2274162109
  H        13.4906050079        2.6196546236       22.4977701345
  H        13.9611866768        2.8447389468       20.8031656110
  C        15.0590256336        1.5151285341       21.9309011539
  S         9.8319368228        9.8652611021       17.5206091217
  N        10.3083942597        9.4735682241       15.9899286430
  C        10.6033978059        7.3534739881       14.8053992689
  H        10.5315646566        5.2179942860       13.9635374976
  C         3.9447137547        0.5452020647       35.9274575265
  N         3.9532488949       -0.7930462092       36.0831914454
  O         4.1169710213       -2.6838527818       34.8243716697
  H         2.1042222441        1.7810298340       17.7634767633
  H         2.7460033130        1.1134138519       19.2858360959
  C         2.8638576364       -0.1916918463       17.5993711406
  H        14.8647182180        1.2361316354       22.9231304403
  H        15.2384507992        0.5474550531       21.5310381747
  C        16.2886788702        2.4460320443       21.9656656307
  C        11.0120650440        8.0810513942       13.6618332255
  S         3.7903440026        1.5062783280       37.3571924634
  C         3.9190812816       -1.5114961503       37.4141433612
  H         2.6631501996       -0.1241665455       16.4827176402
  H         3.8160178292       -0.6412167272       17.5676706430
  C         1.8572989247       -1.1373997984       18.2308058101
  H        15.9273745281        3.3396785768       22.4075509817
  H        16.6207646094        2.6398752985       20.9632961481
  C        17.3879838643        1.8333113776       22.8313911921
  H        10.7261556915        9.1123707481       13.7174275397
  C        11.4394623628        7.7522021584       12.4107837711
  H         3.2088548223       -0.9364595646       38.0450733944
  H         3.5945074180       -2.5487487423       37.3292997751
  C         5.2903478682       -1.5040374431       38.1562539485
  H         0.8198681911       -0.7366369810       18.1870490456
  H         2.2037884297       -1.2565258143       19.2698352222
  C         1.6433693407       -2.3547860760       17.4097893381
  H        17.4734770700        0.7899897846       22.5298413365
  H        18.3629097625        2.3039768871       22.7037623005
  C        16.9304373794        1.9607993246       24.2517969617
  S        11.7864962236        6.1585428745       11.8659485336
  C        11.6013388575        8.8628125983       11.4463945528
  H         5.2639967629       -2.0269257328       39.1228763958
  H         5.9053739797       -2.0418494682       37.4949134809
  H         5.7715338806       -0.4700337307       38.1513720988
  H         1.0544892134       -3.0668220428       17.8982259639
  H         2.5960575019       -2.8127266850       17.3555104377
  H         1.3497429585       -2.1920650311       16.4369410286
  H        17.8944241104        1.9711574591       24.7531540429
  H        16.3555894014        1.1898240093       24.6546099769
  H        16.6357825089        2.9519216146       24.4863262996
  C        11.9747783089        6.9864416712       10.2508326562
  N        11.8832625086        8.3337224189       10.2824728188
  O        11.3490999828       10.0622743560       11.6590048542
  S        12.4905853643        6.2324198171        8.7491819165
  C        11.8613130353        9.2012755018        9.0997753760
  H        12.1042286627       10.2424714022        9.2623840988
  H        12.5920625947        8.8901392909        8.3350567519
  C        10.4251876555        9.0489468019        8.4768387215
  H        10.3999735359        8.1940081794        7.8364998170
  H         9.6295676185        9.0674507308        9.1609332303
  H        10.3938607748        9.9749170137        7.8545825630
  H         4.1481075793        0.9678739032       12.1973825747
  C         3.5941316827        1.8096393284       12.2500860209
  H         4.2280206043        2.7005612640       12.2351108490
  C         2.6932666803        1.7661754499       11.0329755053
  C         2.8709791233        1.8891649114       13.5525828055
  C         3.3577994392        2.0133545560        9.6443350141
  H         1.8377694950        2.5458017216       11.2263106091
  H         2.2747866260        0.7726043694       10.9756651014
  H         2.1625433258        2.7023258696       13.4217069231
  H         3.5618701263        2.1917305442       14.3639035321
  H         2.3622603927        1.0248970710       13.8110032426
  C         4.3079726190        0.8303362723        9.3275703365
  H         2.6571093279        2.0556258578        8.8541468564
  H         3.7336299909        3.0343567794        9.6755971173
  C         5.1163292933        1.1001236579        8.1110854012
  H         3.6563956070       -0.0294241299        9.1320110413
  H         5.0169819533        0.6005412646       10.0841105227
  C         6.3135871047        2.1464056208        8.3979885538
  H         4.4978648817        1.3381037134        7.2254649434
  H         5.6143417166        0.1987352425        7.8373152890
  C         7.5719731192        1.4424784758        8.7550577740
  H         6.5037016380        2.8090751024        7.5361034909
  H         5.9435690170        2.7189046531        9.2607502229
  C         8.8272488201        2.3927206007        9.0243302199
  H         7.7901413562        0.8174330942        7.9506479168
  H         7.5353135717        0.7814894429        9.6693405982
  C         8.4055821338        3.6654972573        9.7640103491
  C         9.1769237158        3.1503489586        7.7496276798
  C         9.9988241639        1.7193406780        9.8256374250
  C         8.7612173055        4.7943364523        9.0380668313
  C         7.8647713700        4.0838779163       11.0416979182
  C         9.1789165047        4.4660536185        7.7245084822
  C         9.5635499364        2.5372641237        6.5454663210
  H         9.6567809032        1.3440886085       10.7052014865
  H        10.5165266274        0.9117917751        9.2456205928
  C        11.0997107360        2.7443543198       10.1606295893
  S         8.5401983256        6.2638600197        9.8660285978
  C         7.9155372342        5.4514063175       11.2771608529
  H         7.5342248054        3.3115675282       11.7860541066
  C         9.5023535076        5.1705812674        6.6092453491
  H         9.6105312424        1.4266803715        6.5181630691
  C         9.9532384041        3.2786877546        5.4475926114
  H        10.6636142374        3.7314726480       10.6276646612
  H        11.6796364363        2.9802514612        9.2075017184
  C        12.1194994068        2.1520106414       11.1770913558
  C         7.6196875479        6.2233450043       12.5104021396
  C        10.0093877450        4.5870994523        5.4603408240
  H         9.5705077465        6.2700160822        6.7232157403
  C        10.5101837374        2.8825267579        4.2115841656
  H        13.0198211054        2.8097767324       11.2168766683
  H        12.4992059887        1.2062650711       10.7625677692
  C        11.6333105863        1.9299830231       12.6074372194
  C         7.6360761034        7.6409067472       12.7572001885
  C         7.2646013861        5.4148103742       13.6658709255
  C        10.4681306311        5.2900498734        4.2064225088
  C        10.7474785030        3.9564329672        3.4370001665
  S        10.7742989423        1.4064773994        3.4406943541
  H        10.8070996624        2.6106917375       12.7578682613
  H        11.2479494679        0.8432585748       12.6902070539
  C        12.7011142230        2.1392257768       13.6025506952
  N         8.0422874139        8.6030169254       11.8368645987
  C         7.3445552018        8.1341387053       14.0147478169
  C         6.8891848505        5.8982309076       14.8904163582
  H         7.4448370607        4.3452657169       13.5885311627
  C        11.7982191331        5.9967722425        4.4364369778
  C         9.3608907437        6.1604249164        3.5375123673
  C        11.1465453887        3.5886584594        2.1190625226
  C        11.2420509899        2.2005320359        2.0017418302
  H        13.0253176001        3.1961599988       13.8236111282
  H        13.6228695676        1.4948100657       13.4194149809
  C        12.2329839479        1.7767080696       14.9677658550
  S         7.9275097780       10.0407101730       12.5868660856
  N         7.5638680369        9.5015851677       14.0789612592
  C         6.9618722918        7.3673817271       15.1776534646
  H         6.8251313042        5.1889246674       15.6969194435
  H        11.5806631004        6.9086425418        5.0260219266
  H        12.1624345050        6.4132480626        3.5114468840
  C        12.9648944464        5.2381327188        5.0715273515
  H         9.0958331684        7.1514965202        4.0262087807
  H         9.7170253264        6.3902643282        2.5333469153
  C         8.1149706828        5.3092921113        3.2185977956
  H        11.4043908360        4.3698579788        1.5006322372
  C        11.6920390226        1.4308552419        0.7641121438
  H        11.4372096244        2.5194655414       15.2359896218
  H        11.7156042418        0.8177125196       15.0371992794
  C        13.4328868459        1.6842351820       16.0676273833
  C         6.6268013802        8.0746885138       16.4330969050
  H        12.6078072935        4.9113249604        6.0251796277
  H        13.1398714512        4.3734573707        4.4333704748
  C        14.1753561769        6.1414082010        5.0642013232
  H         7.5330309418        5.2106767040        4.1131309814
  H         8.3653446311        4.3044095306        2.9552714691
  C         7.2570936464        5.8244405340        2.0702087180
  C        11.7588713899        0.0437815088        0.5518125451
  C        12.1166150290        2.2076373457       -0.4472534152
  H        14.4022870548        2.1178019697       15.7365779702
  H        13.6717561299        0.6552176630       16.2570778055
  C        13.0387622379        2.3718955095       17.3504761033
  H         6.7425702334        9.1714310817       16.3731461357
  C         6.4310003773        7.6325647146       17.6841321686
  H        14.0647579848        7.0654555610        5.6271034725
  H        14.4429700798        6.4526758783        4.0271016305
  C        15.5571329637        5.4821477501        5.4706613871
  H         7.8545671544        6.6129915594        1.5955431488
  H         7.0622356325        4.9708303069        1.4304316876
  C         5.9644565633        6.4718548896        2.6226622829
  N        11.5650280688       -0.9001069737        1.5251294423
  C        12.0129350193       -0.5359200117       -0.6807111509
  C        12.3537669114        1.6533879638       -1.6713931038
  H        12.2439759917        3.2666409642       -0.3173960452
  H        13.1251401045        3.4731617204       17.4472808723
  H        13.6746781336        2.0318838341       18.1939146022
  H        12.0179222398        2.1107119167       17.7836470146
  S         6.0679502235        6.0048425088       18.0821972197
  C         6.3043641661        8.6084115415       18.7742691336
  H        15.6960118817        4.6265264264        4.8148184809
  H        16.3128031649        6.1881175691        5.3188080978
  C        15.5466951103        5.0992204273        6.9359007777
  H         6.2361049509        7.0188697797        3.4995596052
  H         5.2261445398        5.6380413314        2.8315295787
  C         5.3403164877        7.4157138320        1.6700364538
  S        11.6144450621       -2.3334168619        0.8886151081
  N        12.1183144939       -1.9312339866       -0.5755219774
  C        12.3021431119        0.1824454005       -1.8426882929
  H        12.5004786539        2.3125329299       -2.5433090721
  C         5.7238172750        6.6089683551       19.7094670579
  N         5.8927018389        7.9868982368       19.8551317803
  O         6.4777467026        9.7866569405       18.5708492302
  H        15.2861676756        5.9520714439        7.6762280948
  H        14.9560902792        4.2132230455        7.1359979739
  C        16.9219237245        4.5985846550        7.4381611573
  H         6.1612081754        8.0296789835        1.2547324478
  H         4.9234512224        6.7732668733        0.8063348550
  C         4.2701786500        8.2358756453        2.3763405884
  C        12.7391466452       -0.5838829604       -2.9871698607
  S         5.0857217237        5.6813537936       21.0274456779
  C         5.8219965845        8.7526861792       21.1191105571
  H        16.7162678667        4.1333120015        8.4228708651
  H        17.1780419997        3.6831573370        6.8700899421
  C        18.0346408088        5.6461996694        7.5091668717
  H         4.7203513308        8.5320390402        3.2621859185
  H         3.3525804807        7.6709096025        2.6072437902
  C         3.9725037659        9.4843204107        1.5776429095
  H        12.3043739249       -1.6020897086       -2.9578644180
  C        13.3469886950       -0.2656017664       -4.1803384999
  H         5.3271392296        8.3083635109       22.0525078031
  H         5.3362665646        9.6947538965       20.9382410941
  C         7.2130824787        9.0084232483       21.7186422662
  H        18.5600083047        5.3926493222        8.5030464303
  H        17.6743882348        6.6372212229        7.6240229561
  C        18.9859196376        5.4250664707        6.3305701707
  H         3.5099843044       10.1800097923        2.2616798333
  H         4.9855013458        9.9389832907        1.3747675175
  C         3.2370994493        9.3141833067        0.2912862714
  S        13.9464580871        1.3139994619       -4.5774967108
  C        13.3434940260       -1.2208435295       -5.2824211013
  H         7.5568782710        9.9214039426       21.3251203472
  H         7.9737184461        8.2971104254       21.3800296752
  H         7.3496821017        9.0865592903       22.7808337942
  H        18.4536040040        5.4931845552        5.4059830641
  H        19.8531879040        6.1711360657        6.4143244384
  H        19.3992879475        4.3945529490        6.4067597209
  H         3.1515673827       10.2961716534       -0.1560312513
  H         3.6054796329        8.6262083208       -0.4826457190
  H         2.2739668721        8.9408356143        0.5393061301
  C        14.0921566784        0.6997312023       -6.1794338440
  N        13.8059293379       -0.6047696694       -6.3716854384
  O        13.0173220554       -2.3906125720       -5.1938658593
  S        14.8668983963        1.6288617292       -7.4943088589
  C        13.7306889395       -1.3515661892       -7.5471455372
  H        14.0834487884       -2.3915197175       -7.4070248907
  H        14.3405566984       -0.9920847966       -8.3927540281
  C        12.3401371832       -1.4397651159       -8.1171334581
  H        11.6556527623       -1.2275266338       -7.2873903815
  H        12.1612122788       -2.3409517429       -8.6167562796
  H        12.1645894001       -0.7501884309       -8.8603567279
