352
 i =     6500, time =     3250.000, E =       169.3112425386
  H        12.0885787418        5.2349021328       32.1609271720
  C        11.1032502934        5.2083029333       32.3961549109
  H        10.6950341650        4.2234634269       32.3970343636
  C        10.2634166352        5.8390503000       31.2188141128
  C        10.8866546224        5.8236628358       33.7473799167
  C        10.5215238437        5.1902271762       29.8537393413
  H         9.2198250999        5.5287593127       31.3326774839
  H        10.3707054889        6.9321064286       31.1203096008
  H        11.6147329430        6.5699226080       33.9889443439
  H         9.9036074267        6.3267356692       33.7200877328
  H        10.9036689975        5.0633309728       34.5458824526
  C        10.6619241905        6.2248143619       28.7705190428
  H         9.6966165489        4.4864979753       29.6959487968
  H        11.5032051852        4.6597407821       30.0594449704
  C        11.0133768152        5.7186006068       27.3850626561
  H         9.6963705497        6.6878984318       28.6333907058
  H        11.3933416649        6.9678385623       28.9114936300
  C         9.8865522857        4.9436011216       26.6008798376
  H        11.9347044360        5.0793541249       27.3277020386
  H        11.1961727044        6.6246014143       26.8492472040
  C         8.7177603392        5.8047146184       26.0929090923
  H        10.3076761193        4.2127748357       25.8847588040
  H         9.5607436798        4.2607534212       27.4094260649
  C         7.6036921116        5.2337956948       25.2145815600
  H         8.1657095829        6.1123328395       27.0196427881
  H         9.2096603405        6.7036460665       25.6710962924
  C         7.2587809045        3.7952932936       25.9910370960
  C         8.1644938848        4.5194252851       24.1701504192
  C         6.3354332988        6.0345413352       25.0642536055
  C         7.5587517118        2.7286446507       25.1746999785
  C         6.6156023936        3.3786096748       27.1678352888
  C         8.0691872940        3.1689275375       24.0272144106
  C         8.7122145886        5.1244362198       23.0462431265
  H         6.5248867355        6.7497165877       24.3433076396
  H         6.1080668445        6.6468112066       25.9469475427
  C         5.0453860776        5.2743717729       24.5698141990
  S         7.1627438084        1.2044060278       25.7632140744
  C         6.5671469305        2.0439710163       27.1882281355
  H         6.2648527871        4.1463103412       27.8600461477
  C         8.5855207811        2.5104345783       22.9193672986
  H         8.5123667637        6.2135547074       22.8906852674
  C         9.2317204561        4.5271835522       21.9400036185
  H         5.2530615145        4.6094347496       23.8014516828
  H         4.7224020748        4.6130584803       25.3106239482
  C         3.8602242792        6.2530487853       24.4813962326
  C         6.1477576364        1.2785036131       28.4577236711
  C         9.1724834459        3.1694083425       21.7661492929
  H         8.5796888664        1.4441312258       22.8975476270
  C         9.5008859745        4.9563340295       20.6636841674
  H         3.2616257151        5.9730911974       23.5520683136
  H         3.9705715114        7.2506582664       24.1008456213
  C         3.0114848811        6.2405849647       25.8312738761
  C         6.2890775107       -0.1034778672       28.6908741667
  C         5.5271141503        1.9687738483       29.5484804465
  C         9.4735215514        2.4545898573       20.5066102463
  C         9.7177197670        3.8554840245       19.8522880252
  S         9.6234769785        6.5072815698       19.8799948024
  H         2.5169370682        7.1396448666       25.8473668577
  H         3.7763622673        6.4639158324       26.6350270647
  C         1.9839845306        5.1086647769       25.9501974300
  N         6.5423965159       -1.0860402973       27.6734159419
  C         5.9328350175       -0.7297202230       29.9335321418
  C         5.1830501852        1.4300498624       30.7931903201
  H         5.1959867034        3.0152341595       29.3731101072
  C         8.1830201296        1.7075774706       19.9093645436
  C        10.7542440917        1.6117124472       20.5207546329
  C        10.0148256017        4.3116551618       18.6029014021
  C        10.0914359572        5.6430505797       18.4479388416
  H         1.5253483075        4.9367838948       24.9356084513
  H         2.5195900082        4.2903391997       25.9913177727
  C         1.1471280455        5.5749588271       27.1400157459
  S         6.6242079041       -2.4942505871       28.3910849746
  N         6.1895966994       -2.1369124924       29.9097179838
  C         5.4691852783       -0.0074448180       31.0706457414
  H         4.6826729600        2.2102957457       31.4278361851
  H         8.1486432601        0.8139752782       20.4126690327
  H         8.3407857661        1.3799713129       18.8808211332
  C         6.8952110716        2.5516507147       19.8667998526
  H        10.8261938794        1.2808699657       19.5489078957
  H        10.5858622846        0.7361628763       21.1760252396
  C        12.0468122150        2.3316089706       20.8965322066
  H        10.4076923062        3.5038842984       17.9783075562
  C        10.3888581449        6.3863838351       17.1773884227
  H         0.2100877468        4.9184120922       27.2595620695
  H         0.6346747575        6.4796467895       26.8982694488
  C         1.8264992255        5.6549578760       28.4664740294
  C         5.1721989685       -0.7071416252       32.2662401951
  H         7.1166581327        3.4422305396       19.2630686476
  H         6.6672473952        2.9804873655       20.7840706759
  C         5.7573197808        1.7261263218       19.2891398163
  H        11.7331311461        2.8200223413       21.8091108483
  H        12.2791755828        3.0364817924       20.1927231114
  C        13.2717089684        1.3458580139       20.8540822022
  C        10.3937123600        7.7507364777       16.9701071017
  C        10.3933673266        5.6193993036       15.9772662285
  H         2.5523737587        4.8531001426       28.5132132310
  H         2.3697700373        6.5849001187       28.6445219165
  C         0.8577881068        5.4710647064       29.7109290122
  H         5.1395667503       -1.6815828680       32.2180214695
  C         4.7422835149       -0.2675728597       33.4358886576
  H         5.3113255772        1.0026136320       19.9641737727
  H         6.1042229072        1.2671010349       18.3400633573
  C         4.5409407350        2.6175767292       19.1052006531
  H        13.2498304345        0.5794199276       21.5569763922
  H        13.6027776843        1.0023223818       19.8570365997
  C        14.5315398654        2.0026489226       21.2161435635
  N        10.0181345830        8.6566514339       17.9511694131
  C        10.5436070541        8.3723924495       15.7582197518
  C        10.6844302101        6.1261763374       14.7129458162
  H        10.3357872800        4.5507407179       16.0822522499
  H         1.2216849545        5.8609425460       30.6194669933
  H        -0.0377697484        6.0465310653       29.5124811319
  H         0.6176356603        4.4210706774       29.8530194815
  S         4.4641791114        1.3848770422       34.0132014055
  C         4.5299257444       -1.2762008783       34.5374557264
  H         4.4521405799        3.2130832406       19.9512310838
  H         4.6094412513        3.3645772571       18.3703313356
  C         3.1647160520        1.9905728266       18.8489506856
  H        14.8869477747        2.7684497103       20.5372240264
  H        15.2552636977        1.1781981112       21.1855937597
  C        14.6933654712        2.3690381153       22.7207315008
  S        10.1212038857       10.2422817685       17.3665177640
  N        10.4491990275        9.7710974571       15.8048211665
  C        10.7091035002        7.6424421250       14.5369591365
  H        10.7517917669        5.4027409468       13.9732392209
  C         4.2137905610        0.6953856090       35.5999989458
  N         4.2397789172       -0.6146334306       35.7008074833
  O         4.7260085719       -2.4944578292       34.4644104032
  H         2.5122366185        2.8464745529       18.5200163455
  H         2.6995794584        1.5705811717       19.8017098206
  C         3.1220122573        1.0534138863       17.6517440089
  H        13.8586306154        2.9248027892       23.0902952960
  H        14.5484980478        1.3913189962       23.0786709580
  C        15.9833600873        3.0472580138       23.1472012364
  C        10.9550416427        8.3235690194       13.3340558471
  S         4.0906249452        1.7203352254       37.0276368684
  C         4.1497092025       -1.2714363514       37.0055547062
  H         2.2232244944        1.3844614009       17.0255293827
  H         4.0232751434        1.0863587346       17.0696294442
  C         3.0155966481       -0.4311115702       18.0767157771
  H        15.6793996680        3.6986097316       23.9536817339
  H        16.2167786732        3.7553195626       22.4498670785
  C        16.9955039932        2.2085162740       23.7350408001
  H        10.7820651398        9.4350344661       13.3227202262
  C        11.3305616466        7.8602302539       12.1255332261
  H         3.7306841930       -0.6105002907       37.7748025959
  H         3.5965646370       -2.1483263210       36.9910840303
  C         5.5353429599       -1.5019022795       37.5636565113
  H         3.6326471774       -0.5592489638       18.9524731982
  H         3.4455225853       -1.1906103418       17.3320760609
  C         1.5969254642       -0.7759618220       18.4308987825
  H        17.3872400788        2.6922700010       24.6525799024
  H        16.7388554021        1.1891152424       23.8968114133
  C        18.2255949085        2.0817494872       22.8021770049
  S        11.7076721949        6.3296630938       11.5634883017
  C        11.4094467711        8.9399303131       11.0758256152
  H         5.4087800791       -2.3110483330       38.3051606096
  H         6.3006733740       -1.6348281011       36.8418558011
  H         5.8560661533       -0.7031973429       38.0774559921
  H         1.0018825317       -0.5413979773       17.5371746898
  H         1.2825343329       -0.1661244090       19.2681877585
  H         1.5420669888       -1.7525530801       18.8414855972
  H        18.5049461427        3.0436052620       22.3659365576
  H        18.1211349289        1.3361671064       21.9564329682
  H        18.9284848828        1.5787570574       23.3418783009
  C        12.0463311467        7.0541609688       10.0189889955
  N        11.9686982042        8.3906882795       10.0250817056
  O        11.2682471773       10.1363038638       11.2667778062
  S        12.1531714908        6.2655718874        8.4096001102
  C        12.1720544752        9.1114302954        8.7780911447
  H        12.5898147771       10.0923156916        9.0268854978
  H        13.0799613410        8.6836460203        8.2133657087
  C        10.9014770790        9.2995212095        7.9154304269
  H        10.9763459580        8.6834682872        7.0565713904
  H         9.8931244760        8.9985517236        8.3296071864
  H        10.9252960629       10.2906507591        7.5021260950
  H         4.3574847555        1.5316265203       12.9370609023
  C         3.9485374596        2.5556088261       13.0707692618
  H         4.7940512558        3.1911737187       13.3476284906
  C         3.1557128803        3.0890696057       11.8871163493
  C         3.0286728509        2.6400286961       14.3888379929
  C         3.9760944503        3.1308999495       10.6327858468
  H         3.0784905319        4.1779008798       12.1145231750
  H         2.2991892123        2.5647086962       11.5898063395
  H         2.3206469366        1.6939218605       14.5838377419
  H         2.2961153929        3.4883009450       14.2741123805
  H         3.6933804796        2.8533763752       15.2199949098
  C         4.4504280888        1.7449298745       10.1412947982
  H         3.4746496331        3.5278893357        9.8015726461
  H         4.8469624668        3.7208205046       10.8448304506
  C         4.8466424828        1.7523323537        8.6652338069
  H         3.6234433857        1.0748421303       10.2048171064
  H         5.2469409102        1.2866496579       10.7460797360
  C         6.1647341476        2.4565606664        8.4720501785
  H         3.9773183566        2.2838388216        8.1839722087
  H         4.9386427901        0.6496448291        8.3591758836
  C         7.3499981153        1.6672888163        8.8007287901
  H         6.1008912148        2.6302780247        7.4421829437
  H         6.1370777541        3.6227143304        8.7533212701
  C         8.6680873118        2.3965798514        8.9067970859
  H         7.3607966606        1.0631666623        7.9270755569
  H         7.1904721993        1.1605713195        9.7305655887
  C         8.5348393882        3.6910840243        9.7134589926
  C         9.0541392093        3.2123414136        7.6594751329
  C         9.9385241256        1.6428844049        9.4561176558
  C         8.7111850385        4.8547154949        8.9686516576
  C         8.0591656546        4.0126480121       11.0089771271
  C         9.0879521720        4.5151370838        7.6523715482
  C         9.7021686484        2.6705388726        6.4951638242
  H         9.7180380147        1.0815681651       10.4287323738
  H        10.1847864287        0.9877853740        8.7060192168
  C        11.2356423275        2.6023921832        9.8114077450
  S         8.5818283915        6.3788524577        9.8173073762
  C         8.1334153047        5.3734174275       11.1704652368
  H         7.9155758976        3.1829687705       11.7241225804
  C         9.4954639481        5.1832249803        6.5237838382
  H         9.7160319567        1.6123165597        6.4995898191
  C         9.9933455448        3.3409469527        5.3422405551
  H        10.9680341708        3.5577011708       10.1903748497
  H        11.8477475392        2.7617755737        8.9323836798
  C        12.2393397383        2.0804442727       10.8031085108
  C         7.8736368919        6.0999043037       12.5289643454
  C        10.0356681927        4.6608210098        5.3165692401
  H         9.4107347084        6.2651851859        6.6261973441
  C        10.4899509785        2.9901500250        4.1293749521
  H        13.1815972478        2.6956875453       10.6984047260
  H        12.4857942759        1.1187323362       10.3825377369
  C        11.6888271453        2.0536998379       12.1047477416
  C         7.8921353941        7.4875255445       12.7757032375
  C         7.2375418938        5.2958200090       13.7042776991
  C        10.5568239899        5.4235150832        4.1434330147
  C        10.8236434055        4.1345914463        3.3887129688
  S        10.8357585269        1.4709164116        3.4380368478
  H        10.9274883692        2.9152150162       12.2786127683
  H        11.2259721634        1.1381084362       12.3178083666
  C        12.7740510767        2.0440222539       13.2735094832
  N         8.2951404764        8.4519265532       11.8325881380
  C         7.5687045706        8.0977401323       13.9834353351
  C         7.0160698695        5.9623403140       14.9478514724
  H         7.0017210831        4.2666867069       13.6038981471
  C        11.9348119604        6.2081897929        4.3572922374
  C         9.3851699820        6.2922173112        3.4501990785
  C        11.2928206778        3.7349905694        2.1475005420
  C        11.3103862440        2.3472925006        2.0389191361
  H        13.5467729118        2.7430885547       13.0800506460
  H        13.3911314341        1.1127447200       13.4287785998
  C        12.2779486509        2.4805263830       14.6616361422
  S         8.1156725357        9.9820097514       12.4817695817
  N         7.6137270194        9.4948160754       13.9697022651
  C         7.2210974411        7.3970652374       15.1594844097
  H         6.7099928066        5.3590835850       15.7261392166
  H        11.7485172581        6.9835156839        5.0893489605
  H        12.1056135796        6.5778916952        3.3518597369
  C        13.1451289312        5.2778264404        4.8552001819
  H         8.9612941707        6.9206666673        4.2675113920
  H         9.9067352183        6.8085643730        2.6908500023
  C         8.3403069418        5.3486730689        2.7264114778
  H        11.5463369974        4.4641083724        1.5180959983
  C        11.5331721778        1.6934822135        0.7352362725
  H        12.1171776478        3.5642611916       14.6620761035
  H        11.2707638423        2.0867226390       14.8648058220
  C        13.3007182182        1.9707858943       15.7595911471
  C         7.0394817914        8.0889192486       16.3768654375
  H        12.8616419174        4.7719907220        5.8049197819
  H        13.3309724511        4.4843454440        4.0467834961
  C        14.4225880630        5.8988652972        5.1746761140
  H         7.9874339624        4.4886653022        3.4199448525
  H         8.7524330583        4.9598649953        1.8573407056
  C         7.3330119980        6.2826206715        2.0611132404
  C        11.5420291532        0.2572059511        0.5610510316
  C        11.6600085636        2.4552203981       -0.4711040052
  H        14.2139081996        2.4885185294       15.6224519941
  H        13.5172244100        0.9259584964       15.6497400895
  C        12.9363846023        2.4131834730       17.1952962688
  H         7.1353035232        9.1386964433       16.2453770398
  C         6.7219704443        7.7095770284       17.6646397502
  H        14.2342370670        6.8929453602        5.4752396704
  H        14.9478923131        6.0060528829        4.2135469131
  C        15.2890411984        5.2637095776        6.2049785445
  H         7.1290717316        7.0943801268        2.6638109902
  H         7.5844415331        6.6585892704        1.0962850080
  C         6.0341680228        5.4689131654        1.8796995623
  N        11.2632278055       -0.6400533438        1.6122390920
  C        11.8117285002       -0.3385500500       -0.6463403121
  C        11.9791867656        1.8376485251       -1.6959146360
  H        11.9594396018        3.4552436557       -0.4270801729
  H        12.1740174574        1.8912141270       17.6343663462
  H        12.6030190499        3.3865988303       17.0217369430
  H        13.7503420475        2.5503424800       17.9845288125
  S         6.6143898725        6.1449836633       18.3275579463
  C         6.6024255231        8.7424284203       18.6798697957
  H        14.9733237357        5.3592386899        7.2578332962
  H        15.4183098582        4.2289626944        5.9694431238
  C        16.8366658191        5.7275058098        6.0214506035
  H         5.5550055320        4.9653737427        2.7619765780
  H         6.1109504437        4.7637220943        1.0878438014
  C         4.9730358442        6.2949732332        1.3148636998
  S        11.6032867066       -2.1624845387        1.0024152214
  N        11.8635935965       -1.6915631600       -0.5460374204
  C        12.0069735371        0.3542394017       -1.8237301573
  H        12.2443537182        2.4640368306       -2.5550927817
  C         6.3852905382        6.8910203584       19.9233507789
  N         6.3046338257        8.2141821733       19.8876099653
  O         6.7505479297        9.9598503185       18.4536642102
  H        17.3287972784        5.7226135105        4.9748300793
  H        16.8714155208        6.7961420413        6.2390950250
  C        17.7879906975        5.0129163519        6.9729718836
  H         5.2956611859        6.9966539160        0.5014778071
  H         4.2682433173        5.6015432026        0.6558665613
  C         4.1282436140        6.9335408938        2.3677932565
  C        12.3242496093       -0.3691421601       -3.0125987380
  S         5.7633660112        6.0842492526       21.3475168892
  C         6.3557468795        9.1380428219       21.1412303566
  H        17.4349932157        5.0964705178        8.0097250318
  H        17.7520589685        3.9820034799        6.7429367344
  C        19.1966357916        5.5421147732        6.7241883982
  H         4.7801258934        7.3127050558        3.1839868623
  H         3.3409678227        6.2732084590        2.7403705453
  C         3.3717471363        8.1576276643        1.6983621103
  H        12.1328911738       -1.3785738638       -3.1250640945
  C        12.8817859391        0.0057928577       -4.2185208748
  H         5.6719299840        8.8017484635       21.8895668354
  H         5.7767736550       10.0420089433       20.8460700699
  C         7.8626746196        9.4861787646       21.5918719645
  H        19.7671503589        5.4453971834        7.7537996617
  H        19.1218976511        6.6325879091        6.6824213527
  C        20.0087002413        5.1500916133        5.5209456998
  H         2.9675789092        7.7591608579        0.8166459578
  H         2.4779359028        8.3444254251        2.2473040984
  C         4.2902757898        9.4299394905        1.5021351379
  S        13.3514563756        1.5613744473       -4.7947709688
  C        13.2987136979       -0.9903085692       -5.2336834897
  H         8.3931624876       10.2373856213       21.0579038486
  H         8.5368884610        8.6231235315       21.4862160339
  H         7.8398829495        9.9649513843       22.5927209139
  H        19.7749920842        5.4274510972        4.5305510677
  H        21.0818784002        5.4926602494        5.6073402921
  H        20.2134941194        4.0678605111        5.6706271513
  H         4.4039247579        9.9435295306        2.4576454974
  H         5.2605211210        9.2888903498        1.1103169164
  H         3.6918196296       10.1478536529        0.8688803515
  C        14.0364910815        0.8539302395       -6.2379572208
  N        13.9503729857       -0.4545678099       -6.2877440512
  O        13.0685275687       -2.1786091010       -5.0691068405
  S        14.5567255719        1.9131617643       -7.6467986922
  C        14.1218733827       -1.3257398390       -7.4314501514
  H        14.5232431955       -2.3424510728       -7.2975583675
  H        14.7843150805       -0.7712059333       -7.9900869298
  C        12.8903765586       -1.3449794260       -8.3974095018
  H        12.0957866750       -0.5200981196       -8.2242587534
  H        12.3908753618       -2.2887082168       -8.2273638475
  H        13.0313899859       -1.2714628799       -9.4721954171
