352
 i =    29900, time =    14950.000, E =       101.2020243908
  H        10.2733357657        4.8478063396       31.9523921692
  C        10.8969809645        5.6782715171       32.1512880797
  H        10.1296266004        6.2208352875       32.7015102589
  C        11.3368955537        6.4354053043       30.9124490399
  C        11.9578318829        5.2059612991       33.0808336092
  C        11.6555794752        5.4246626459       29.8410077169
  H        10.6965050958        7.2876980409       30.4932251705
  H        12.2794576718        7.0453913255       31.2446843799
  H        11.5844832343        4.5708257454       33.7959473089
  H        12.7197658197        4.6590385837       32.4734055884
  H        12.5200140275        6.0199249967       33.4883989878
  C        10.3796368777        5.0239918898       29.0167949182
  H        12.2296777735        4.5979642077       30.1569361103
  H        12.2721037380        6.0322064727       29.2001641410
  C        10.7915481493        5.0367769646       27.5577510689
  H        10.0376030099        4.0292880083       29.3759574443
  H         9.6106700945        5.7941633927       29.0707072244
  C         9.7166707951        4.5948739351       26.5900152885
  H        11.7077687052        4.4903208995       27.4337848699
  H        11.1000704795        6.0313694488       27.3004848182
  C         8.4768554795        5.4894632390       26.4293290053
  H        10.1230754486        4.1357223976       25.7243019715
  H         9.3690462537        3.7333146553       27.2281994558
  C         7.3095167399        4.7951023054       25.7393893086
  H         8.1222960050        5.9421077623       27.3202909900
  H         8.7277229506        6.3584759850       25.8082404508
  C         6.9624771633        3.4883742218       26.4602090992
  C         7.6264583630        4.0656671799       24.4947423330
  C         6.1538813801        5.7464827144       25.5112286228
  C         7.1117727224        2.3698153061       25.6660769295
  C         6.4755843048        3.1003721996       27.6904988712
  C         7.5261117088        2.7253870234       24.3951691914
  C         8.1114124367        4.6465377606       23.2972587029
  H         6.5848117822        6.3249055546       24.7237182124
  H         6.1303419756        6.3010940295       26.4802820606
  C         4.8599742180        5.0195350059       24.9463221239
  S         6.5830605005        0.8635824732       26.2985458595
  C         6.3524818523        1.7157106828       27.7982201132
  H         6.1581128473        3.7758835552       28.4550104441
  C         7.8375182044        2.0279918248       23.2406415791
  H         8.0557241546        5.7007248703       23.1213264635
  C         8.4708125812        3.9636711402       22.1526656700
  H         5.0267159128        4.5825947301       23.9322265968
  H         4.6741471188        4.1081356112       25.5465278386
  C         3.6775427452        5.9487683676       24.6501182873
  C         5.8503395000        0.9578562498       29.0245959208
  C         8.2802280696        2.6002108348       22.0229456667
  H         7.8551141992        0.9323617932       23.3708370299
  C         8.7810133616        4.3681856859       20.8880499073
  H         3.0906966989        5.5449521216       23.8194534864
  H         4.0328571841        6.8314250378       24.1604959314
  C         2.7678249864        6.3049999666       25.8800625094
  C         5.8275330107       -0.4526747531       29.1573772171
  C         5.0911467189        1.7498288311       30.0748591618
  C         8.8024825968        1.9212292466       20.7366767351
  C         9.1237500680        3.3055259786       20.0459482977
  S         8.9484982840        5.9241796863       20.1061603005
  H         2.0413810469        7.1077902030       25.5852053939
  H         3.2801107664        6.7745898017       26.7200996477
  C         1.9824378132        5.1013396694       26.3916653114
  N         6.1808503770       -1.4671627502       28.2138637459
  C         5.5212145190       -1.0568242520       30.4324859750
  C         4.6824212922        1.1146278063       31.2509117444
  H         5.1466008147        2.8566244385       30.0073088938
  C         7.6671619415        1.1971287117       19.8766594410
  C        10.1088191993        1.0865416852       20.9299476132
  C         9.5010636993        3.7309070134       18.7775876088
  C         9.4313111093        5.1377138300       18.6527691732
  H         1.5405828060        4.5338452259       25.5862094366
  H         2.7583870937        4.5176853648       26.9114948362
  C         0.9724016907        5.5188379148       27.4415705269
  S         6.3174072864       -2.9517846985       29.0102622357
  N         5.8030239818       -2.4472568524       30.5152913143
  C         5.0438603924       -0.2862272144       31.5292037957
  H         4.2509362906        1.7160404797       32.0310566726
  H         7.4778003807        0.2858478748       20.4013409191
  H         8.0961514323        0.9357760931       18.9338548810
  C         6.3514204778        1.9895901880       19.7516088744
  H        10.1984987409        0.2887745611       20.2088511076
  H         9.9204345542        0.4660909995       21.6548767499
  C        11.4649494310        1.8212172105       21.2720677076
  H         9.7500828314        3.0217363565       18.0281962608
  C         9.7382653389        5.9281799228       17.3894733764
  H         0.3455721506        4.6834670928       27.5759880125
  H         0.3409017490        6.3432898991       27.0659628666
  C         1.5565751599        5.8407588852       28.7794539888
  C         4.6982656023       -1.0589440558       32.7381362867
  H         6.5734013992        3.0371599038       19.7364056121
  H         5.7576169279        1.8780002178       20.6357558785
  C         5.4781030386        1.6137163944       18.5187874970
  H        11.3373587332        2.4789940878       22.1032370112
  H        11.8636650814        2.4031266954       20.4117335201
  C        12.5867981117        0.8656010085       21.6713349804
  C         9.7923514482        7.3541035401       17.2815399563
  C         9.9180840670        5.2039771383       16.0955016814
  H         2.3083692666        5.1613326392       29.0744555703
  H         2.1522172627        6.7827397589       28.7754133188
  C         0.5639542886        5.8378645965       29.9852353389
  H         4.6833862941       -2.1245335214       32.6190972803
  C         4.4206857413       -0.5366266268       33.9815502405
  H         5.5298111034        0.5112097519       18.4772188778
  H         5.9494011449        2.0068410615       17.6107489218
  C         4.0891503204        2.2699505048       18.4810829305
  H        12.5416835813        0.5795668893       22.7110734097
  H        12.4088561736        0.0047271525       20.9866838627
  C        14.0024858886        1.4379970128       21.4920201297
  N         9.4360880804        8.2465000520       18.2230863760
  C        10.0894511092        8.0286415702       16.0723500436
  C        10.2712945033        5.8393981592       14.9317549326
  H         9.7158028471        4.1655994913       16.0296165792
  H        -0.2715816653        5.2266858511       29.8586554526
  H         1.0034613811        5.5423976230       30.9362709224
  H         0.1319833976        6.8194274883       30.2787683334
  S         4.3655401366        1.0925912760       34.4272289281
  C         4.0780657228       -1.5437507176       35.0657101431
  H         4.2266623899        3.2308849959       18.9901867687
  H         3.8829465044        2.5155621793       17.4593029114
  C         3.0269390676        1.4338299485       19.1634087081
  H        14.0316751511        2.0130174274       20.5282568415
  H        14.6684802244        0.6064410522       21.5687542231
  C        14.2946459179        2.3669062186       22.6470250813
  S         9.4885730445        9.7899597379       17.7076923532
  N        10.1938193893        9.4348661040       16.3379825655
  C        10.4673857153        7.3054768669       14.8979772871
  H        10.2617692241        5.2956815369       14.0146319962
  C         3.9752019813        0.5501317613       36.0204130134
  N         3.8306575202       -0.8263326817       36.1905729520
  O         4.0189886587       -2.7280232117       34.8779261972
  H         2.1724679986        2.1398110391       19.4068957555
  H         3.3831137269        0.9936585767       20.1336928442
  C         2.4164996084        0.4532792311       18.1639698661
  H        13.8390619418        3.3204736581       22.4621564579
  H        13.9908501280        1.9360658729       23.6133915835
  C        15.7985107963        2.6344344018       22.6299186082
  C        10.6688447406        8.0160792226       13.7477895838
  S         3.6170001044        1.6098644848       37.4045432490
  C         3.6992302741       -1.4616814910       37.5172243261
  H         1.6152360543        0.9596861606       17.6713797682
  H         3.1066866874        0.2374742812       17.4155387701
  C         1.9747925380       -0.8660304845       18.9152658628
  H        15.8216275695        3.6321181382       23.2104289564
  H        16.1412569708        2.7469722868       21.6027084832
  C        16.6568057457        1.5471184645       23.1896985769
  H        10.3911782115        9.0773336995       13.7239527989
  C        11.2081490796        7.7121851475       12.5345762904
  H         3.0153229396       -0.8424024478       38.1224028724
  H         3.3676515448       -2.5321952291       37.3528717147
  C         5.1019859920       -1.4023681909       38.1398577970
  H         0.9722328888       -0.7356280282       19.2964084768
  H         2.6825003499       -1.0334722858       19.7075906675
  C         1.8267409087       -1.9800373144       17.9816192223
  H        16.2594043759        1.2516949416       24.1608154347
  H        16.6917930043        0.6351822309       22.5894640353
  C        18.0585614528        1.8866807740       23.4641418308
  S        11.7267827401        6.1545120196       11.9828927844
  C        11.4193310164        8.7850783585       11.5153426167
  H         5.2684624918       -0.5624970796       38.7704810860
  H         5.2350935403       -2.2144591110       38.7823008804
  H         5.9481324902       -1.5549661332       37.4285927681
  H         1.2272177272       -1.6477397410       17.1623387844
  H         1.4031124221       -2.8797783854       18.4224656173
  H         2.7586536542       -2.3430454279       17.5953584186
  H        18.6973939380        1.2191998573       22.9314181565
  H        18.3113961017        2.0391530071       24.5558801039
  H        18.3809396690        2.7761216191       22.9178780564
  C        12.3520062598        6.9806937306       10.5528129613
  N        12.1110431972        8.3248115536       10.4740804413
  O        11.1673066360        9.9845740891       11.6959284409
  S        13.2482153948        6.1869181297        9.2409193895
  C        12.4633343610        9.2732333423        9.3665385980
  H        12.7785128973       10.2206995296        9.7334800317
  H        13.3477795436        8.9143384699        8.9095221759
  C        11.3203204832        9.4273976651        8.2988988016
  H        10.3326688022        9.2104941088        8.7359536768
  H        11.3246669538       10.4387428330        7.9565671609
  H        11.4747971500        8.8241049292        7.4196203680
  H         5.5248868316        1.9266136557       12.7612606513
  C         4.5787463599        2.4359902672       13.0164381958
  H         4.8841831514        3.5186272998       13.0961344120
  C         3.4820683783        2.2789445934       11.8937985950
  C         3.9945793149        2.1770921604       14.3278010797
  C         3.8766734617        2.4640135356       10.4333100074
  H         2.7220689587        3.0284401663       12.0974016779
  H         2.9891687192        1.3400282180       11.8502512443
  H         4.6789233399        1.6778818860       15.0321976963
  H         3.1755742161        1.4929462200       14.3410449581
  H         3.3767967155        3.0633959615       14.6114472361
  C         4.7560081039        1.2902977291        9.8960039661
  H         3.0216305781        2.5625635346        9.8251279409
  H         4.3775309628        3.4029103493       10.4499441098
  C         5.5236465719        1.5605722373        8.6107845179
  H         4.1048721567        0.4512050671        9.6996542989
  H         5.5295513376        1.0571732736       10.6087651624
  C         6.6914845676        2.5105836869        8.8334591724
  H         4.9177937975        2.2667706898        8.0203715105
  H         5.7276413952        0.7598616472        7.8799174395
  C         7.9502508616        1.8827103854        9.5778491698
  H         7.0585644507        2.8364891646        7.9137557467
  H         6.5123107697        3.3713328229        9.3831423139
  C         9.1436420396        2.8137539293        9.6225538381
  H         8.2871749256        1.0130998282        9.0856905322
  H         7.6396865052        1.4996428763       10.5413031453
  C         8.7919500000        4.2083720077       10.2693238383
  C         9.5174758027        3.4604388747        8.3299997684
  C        10.3062298987        2.0692619901       10.4011454755
  C         8.9784291290        5.2693063250        9.4393409464
  C         8.2026526330        4.5838432035       11.4360463706
  C         9.5181277819        4.8172191224        8.2385792343
  C         9.8802822105        2.7940426641        7.1754446358
  H         9.8793664599        1.8081026753       11.3310840688
  H        10.5846606110        1.1301588032        9.9076135721
  C        11.6238235462        2.8168269171       10.4543824399
  S         8.5311598046        6.8516240456       10.1250425392
  C         8.0303715769        5.9456284412       11.5235762298
  H         8.0630466394        3.7875334019       12.1610527232
  C         9.8305710516        5.4184168354        7.0440645594
  H        10.0000018126        1.6717692246        7.2260883274
  C        10.2789655859        3.4197706338        6.0676987958
  H        11.3956987195        3.8007683314       10.8542154284
  H        11.9698476372        3.0643884233        9.4827357828
  C        12.6966791078        2.1539473819       11.3245411939
  C         7.4389608320        6.5904310346       12.7643981537
  C        10.2147581692        4.7670297270        5.8728297372
  H         9.6067598807        6.4463891486        6.9397439760
  C        10.7342718059        2.9753434613        4.8726192095
  H        13.4494813173        2.8793824036       11.4526812965
  H        13.2260412004        1.3383434953       10.7765121848
  C        12.2779867815        1.8599985695       12.8330239630
  C         7.5267293088        7.9067346300       13.1251426797
  C         7.0079076660        5.6671342797       13.7799899307
  C        10.5679036774        5.4375373512        4.6658212027
  C        10.9264837423        4.0758748032        4.0525134341
  S        11.0012044180        1.4277055641        4.1439482494
  H        11.7493814018        2.7747018690       13.1658861745
  H        11.4395709688        1.1670326154       12.9484891473
  C        13.4335398934        1.5657428456       13.7622884943
  N         7.9265459271        8.8898944326       12.2093961682
  C         7.1228824059        8.3873551947       14.3593818373
  C         6.6225314349        6.1454715484       15.0829013574
  H         6.8144829036        4.6862520301       13.4741313934
  C        11.8203829083        6.2691215334        4.7977594554
  C         9.4491913787        6.1705000543        3.9206263496
  C        11.3070775888        3.5944150851        2.7613205653
  C        11.5226851358        2.2119729527        2.7122673147
  H        13.7919219480        2.5835754671       13.8360671931
  H        14.2020434855        0.8396573237       13.3012911218
  C        13.0154639100        1.1104178421       15.1291974746
  S         7.6355843590       10.3278003153       12.8495527625
  N         7.1938419302        9.8033223550       14.4012561993
  C         6.7157924596        7.5669726090       15.4108186781
  H         6.3332922569        5.4172409461       15.7924793435
  H        11.6267019476        7.0127068534        5.6244615680
  H        12.0855444575        6.8484908439        3.8983218898
  C        13.1233117848        5.5048527318        5.1409003351
  H         8.9664624003        6.8559414898        4.6467830503
  H        10.0784479462        6.7515293037        3.1821744958
  C         8.3676652978        5.3035183209        3.3177243461
  H        11.5242950336        4.2526401831        1.9093791335
  C        11.9754311141        1.4957779796        1.4884161896
  H        12.6741413602        0.0957733882       15.2172287618
  H        13.9734871724        0.8343857359       15.6778564184
  C        12.2343976356        2.0034368993       15.9991338076
  C         6.3242691608        8.0960044968       16.6981818578
  H        13.0268943290        4.8335956480        5.9407267168
  H        13.2424032361        4.7536208100        4.3578274648
  C        14.3200260844        6.4221586049        5.3185601016
  H         7.7814578792        4.8535885722        4.1106162174
  H         8.7509327693        4.5189648255        2.6773693180
  C         7.4414034714        6.1660794925        2.4394510868
  C        12.0255899458        0.0640676228        1.3316604930
  C        12.1473758731        2.2745704046        0.2266535567
  H        11.2064311161        1.6768394606       16.1382897449
  H        12.2181733996        2.9818262406       15.5414330825
  C        12.8226502343        2.3535679293       17.3973938688
  H         6.4504123345        9.1645688057       16.7469339819
  C         6.0390495955        7.5329281365       17.8861163275
  H        14.0467210977        7.1356779039        6.1421122643
  H        14.4212015392        7.0108661873        4.3935760837
  C        15.5733663576        5.6726695861        5.5352386089
  H         7.9611725521        6.9370101443        1.8925133927
  H         7.0605836371        5.4978981924        1.6666685698
  C         6.2077704550        6.8173558267        3.0491748511
  N        11.7268213685       -0.8839119893        2.2837204494
  C        12.3079990867       -0.5209941831        0.0644617666
  C        12.3534814444        1.6585588013       -1.0089458516
  H        12.2039546625        3.3194931424        0.2325421836
  H        12.2589070483        3.2536722391       17.9290809535
  H        13.8057556165        2.6821570350       17.2683729003
  H        12.7725007143        1.4838524112       18.0107445947
  S         5.8544590135        5.9198253798       18.2419206636
  C         6.0879914045        8.4269905538       19.0808050682
  H        15.4097133236        4.5800053529        5.5386270965
  H        16.2830388996        5.8880910778        4.7186025715
  C        16.2760321757        5.9942529239        6.8096610980
  H         6.4134573347        7.4140132861        3.9351977186
  H         5.3997644892        6.0524653489        3.3912431612
  C         5.6867966895        7.7704396832        2.1063853624
  S        11.8016718326       -2.3635284634        1.6381192772
  N        12.3202145090       -1.9366653632        0.1893590643
  C        12.5051251277        0.1761256844       -1.1165038609
  H        12.4138762017        2.2651696111       -1.9152550412
  C         5.7455904634        6.3580591548       19.9788798440
  N         5.8200137366        7.6800211257       20.1903244328
  O         6.2970998808        9.6211215748       19.0635828634
  H        16.8730530731        6.9225520442        6.6842741839
  H        15.4796431184        6.2099272827        7.5225968652
  C        17.3480804320        5.0084622910        7.3106461076
  H         6.3520519814        8.3451175938        1.5038302675
  H         5.1622849337        7.1075508337        1.4668490497
  C         4.7050659342        8.7452517068        2.7431399298
  C        12.8696999618       -0.5277016566       -2.2445692721
  S         5.3031706441        5.2758554214       21.3161477975
  C         5.8223538833        8.3474828046       21.4440833848
  H        16.7746499143        4.2540970874        7.8810925149
  H        17.7427855817        4.4858957002        6.3675269725
  C        18.4457175343        5.6961070554        8.1193276527
  H         4.9295056743        8.9988471388        3.7677289123
  H         3.6777792963        8.3466655200        2.7983627468
  C         4.5863770390       10.1239765150        1.9911849897
  H        12.8909265962       -1.5537691668       -2.1391006187
  C        13.3142918431       -0.1653888725       -3.4866315738
  H         5.3388929747        7.6657260720       22.1295349607
  H         5.1374529234        9.2036123903       21.3992224419
  C         7.3283640529        8.7542380223       21.8373483511
  H        18.7974310795        4.8992249737        8.8033638456
  H        18.0367857649        6.5188466433        8.7454219208
  C        19.5221751728        6.1016533477        7.1403001089
  H         3.8469688488       10.7053128090        2.5209583635
  H         5.5472450576       10.5724456096        2.1856513184
  C         4.2089455126       10.0046152241        0.5308962785
  S        13.6498646569        1.4235970339       -4.0514955055
  C        13.4532916893       -1.2556494858       -4.4529156748
  H         7.9078778741        7.8880911468       22.1016768207
  H         7.4044952337        9.3697695234       22.7589559945
  H         7.8226103992        9.2433726338       21.0418289383
  H        19.0468438923        6.9168781880        6.4969145448
  H        20.3011646241        6.4440139039        7.7023130442
  H        19.9074800664        5.2307466137        6.6260201207
  H         4.0393427227       11.0178880370        0.0963916619
  H         4.8479099966        9.4181525440       -0.1000372852
  H         3.2281139172        9.5233316385        0.5071832302
  C        14.0885977575        0.5577762429       -5.5358103204
  N        13.9752195579       -0.8478940141       -5.6046784754
  O        13.1559508683       -2.4046371922       -4.2746614508
  S        14.9246270752        1.3352600802       -6.8352960941
  C        14.0522427319       -1.6002350182       -6.8645620424
  H        14.0491632784       -2.6499479339       -6.5799679991
  H        14.9049813544       -1.3755488553       -7.4592342198
  C        12.6810025639       -1.3849907651       -7.5514385193
  H        12.6066515437       -2.0383371528       -8.3964971417
  H        12.5172085287       -0.3118625871       -7.8074927385
  H        11.7431490690       -1.6366270098       -7.0449313001
