352
 i =    15800, time =     7900.000, E =       111.6315504665
  H        10.0486972299        6.7862350597       32.4532437100
  C        11.0373627912        6.4446531543       32.4595201348
  H        11.5418533837        7.1902676663       33.0488813488
  C        11.4909680216        6.2689063027       30.9251115215
  C        11.2175998796        5.1282770571       33.2412871515
  C        10.6391094734        5.2723542726       30.0865697394
  H        11.2957264761        7.2438570918       30.3782334973
  H        12.5194913793        6.0151273931       30.7747029399
  H        11.9505090205        4.4542320568       32.8218862168
  H        11.4245026478        5.2942067726       34.2989967874
  H        10.3289313160        4.4959051608       33.1286033232
  C         9.9831410793        5.7017500588       28.8046066988
  H         9.8557993745        5.0623127566       30.8699652607
  H        11.1718180100        4.3438677332       29.9719028109
  C        10.6493708153        5.3903499420       27.4257359794
  H         8.9841644270        5.3229038172       28.8656294886
  H         9.8296135457        6.8248052386       28.7721735229
  C         9.6918805351        4.8222517814       26.4191800640
  H        11.4515428903        4.7285824882       27.5760149113
  H        11.0299162807        6.2874231068       27.0132887602
  C         8.5280108948        5.7194862829       26.0544128304
  H        10.1501454058        4.5149524303       25.5220796239
  H         9.2941490649        3.8837448567       26.8617393965
  C         7.3737660099        4.9558678974       25.3932305893
  H         8.0932798158        6.0697277275       27.0101319203
  H         8.7190558661        6.6298661813       25.4321118949
  C         6.9743432783        3.7245159562       26.1523914726
  C         7.7506118652        4.2752988887       24.1806939049
  C         6.2172853052        5.9360643156       25.3495480382
  C         7.1783748517        2.5916890181       25.3440800556
  C         6.3994973228        3.4175714067       27.3759007282
  C         7.6388647616        2.9280607808       24.0757387245
  C         8.1977153424        4.8598328951       22.9994056897
  H         6.6105258825        6.8340554081       24.7413693588
  H         5.9820341439        6.3230468443       26.3279056026
  C         4.8854251938        5.3996374273       24.6643752039
  S         6.6303679282        1.1354710463       26.0607886235
  C         6.2616677489        2.0698580396       27.5502620942
  H         6.2336833968        4.2400421604       28.0558196904
  C         7.9231647595        2.2292131988       22.9337320439
  H         8.3004921224        5.9327951009       23.0896870888
  C         8.5198719706        4.2796765334       21.8488154122
  H         5.1680506391        4.9374544362       23.6207942302
  H         4.5877465692        4.5468285783       25.2543450017
  C         3.7244379540        6.3502840920       24.5551477544
  C         5.8918594109        1.3834515505       28.8515609420
  C         8.3921593400        2.9340620825       21.7371944605
  H         7.8275242084        1.1893003883       22.9887385105
  C         8.9809725416        4.6594856840       20.6084984407
  H         3.0030645591        5.9989998219       23.7739270936
  H         4.0298802417        7.3057464166       24.2128450572
  C         3.1536598632        6.8383339680       25.8442355707
  C         5.8073735937        0.0017390980       29.0746379407
  C         5.6793326954        2.2525022354       30.0613835008
  C         8.7632082603        2.2788448408       20.4113231007
  C         9.1336418352        3.5923186937       19.7509178401
  S         9.4010069169        6.1576473675       19.8617588730
  H         2.4610431806        7.6119293207       25.7049520144
  H         3.9245383761        7.2311646751       26.4356178884
  C         2.5057956310        5.7395930524       26.7205010378
  N         5.9620249225       -1.0200215614       28.1702360354
  C         5.5381435639       -0.5404708055       30.3590388859
  C         5.5004636365        1.6740746257       31.3511195168
  H         5.7183305314        3.3362391939       30.0151450510
  C         7.6607796962        1.5868083636       19.6392500635
  C         9.9887166530        1.3964394931       20.5576086464
  C         9.2832509958        4.0148012219       18.4246552916
  C         9.6032920175        5.3190376982       18.3320770216
  H         2.0209817801        4.9374246222       26.1435262502
  H         3.4770937392        5.3950899059       27.2242677891
  C         1.5476984343        6.2053114494       27.7499825843
  S         5.7902973497       -2.5216003065       28.9133778728
  N         5.4402475096       -1.9325083503       30.3719503152
  C         5.3413221544        0.1993817022       31.4865107278
  H         5.4783789603        2.2906327944       32.2566797957
  H         7.3191118345        0.8324027998       20.2943005271
  H         7.9538850032        1.1052728568       18.6831139821
  C         6.3872134016        2.3862573804       19.3603139557
  H        10.1319724770        0.7933236626       19.6465430884
  H         9.7899761900        0.7288338950       21.3485209825
  C        11.4160370093        2.1122769329       20.8051380399
  H         9.1131848639        3.2902402702       17.6284294837
  C         9.9929767383        5.9496596528       17.0644272637
  H         0.6019272625        6.5159751549       27.3910124477
  H         1.9484943344        7.1526546917       28.1971603316
  C         1.1683925803        5.1847915297       28.7949215840
  C         5.0488164887       -0.4748569100       32.7449178714
  H         6.6386523766        3.0726645983       18.4839724256
  H         6.1951510252        2.9618261687       20.2779012552
  C         5.3025797196        1.3617951613       18.9039239118
  H        11.2688595510        2.9010200805       21.4953568555
  H        11.8291082778        2.5255712405       19.8981951202
  C        12.5462942926        1.1607759603       21.1477691699
  C        10.1919711823        7.3514550318       16.8748204842
  C        10.3762958825        5.1652918713       15.8555928267
  H         0.2115628500        4.8024946331       28.5541354848
  H         1.8830872798        4.3958917492       28.6727377788
  C         1.2838755622        5.7712084636       30.2786034534
  H         5.2458317546       -1.5622595498       32.7944320546
  C         4.6864313176       -0.0310177419       33.9529241305
  H         5.1094289124        0.5469681365       19.5950954502
  H         5.6318379821        1.0319370321       17.9424067122
  C         3.9510645425        2.0136964402       18.5501862495
  H        12.1567977613        0.4573654533       21.9824804406
  H        12.6522817256        0.5324757191       20.3447078989
  C        13.8451129985        1.8360464136       21.4210133313
  N         9.8117244571        8.2974439427       17.8151533934
  C        10.5872058237        8.0049382764       15.7226264478
  C        10.8038948677        5.8102398862       14.6876946619
  H        10.2267441824        4.0372110879       15.8057250309
  H         0.8175353197        5.0496564765       30.9921963880
  H         2.2649284393        6.2179910519       30.5677092655
  H         0.6880155749        6.6297170158       30.2260873546
  S         4.4324536955        1.6056093942       34.5044332876
  C         4.7559725160       -1.0770548449       35.0366956810
  H         3.7440675814        2.8685974881       19.1369344929
  H         3.9583001541        2.3806185752       17.5568784931
  C         2.7658948562        1.0841875681       18.8245995197
  H        14.0292300558        2.6847573567       20.7570267681
  H        14.7148930164        1.2131946926       21.1402614300
  C        13.8995242038        2.3438742650       22.8288215340
  S         9.9723380403        9.8156960707       17.2280223647
  N        10.6775937810        9.3893059169       15.8145269100
  C        10.9180167005        7.3129099125       14.5318602878
  H        11.1571840682        5.2277610014       13.8340182090
  C         4.2680140514        0.8683722236       36.1219504816
  N         4.5662007191       -0.4392846422       36.2335720656
  O         4.9518803725       -2.2781422266       34.9081429871
  H         1.8381622658        1.6920756593       18.6853012505
  H         2.6878960340        0.5088814373       19.8212435717
  C         2.5577820559        0.1105823676       17.6557306686
  H        13.0981096435        2.9974427984       22.8950749993
  H        13.5875465371        1.5927994113       23.5716505072
  C        15.2312091559        2.9742984255       23.1097839380
  C        11.1855010054        8.0792909653       13.3318915372
  S         4.1303321682        1.8531485496       37.5395922119
  C         4.6132684579       -1.1965163575       37.4912588318
  H         1.8611881710        0.5544853998       16.9327670080
  H         3.5787730968        0.0531151984       17.1142247942
  C         1.9360183644       -1.2152351915       18.2496685505
  H        15.0442189272        3.5201172463       24.0008155423
  H        15.4322489767        3.7533875611       22.3301336548
  C        16.4708236967        2.0830926657       23.2779165532
  H        11.0781439349        9.0212422518       13.3966716267
  C        11.6637190052        7.7654326597       12.0705613232
  H         3.9617232885       -0.6034454576       38.1935358701
  H         4.0438450747       -2.1144348977       37.3545478693
  C         6.0628813782       -1.4571862608       38.0079881818
  H         0.9768883789       -0.9472155274       18.7459795320
  H         2.4401600956       -1.6290572993       19.0862222911
  C         1.7242282858       -2.2733215170       17.2453106594
  H        17.1292533225        2.5131893998       24.0502460021
  H        16.1581739686        1.0657516406       23.6329102618
  C        17.4196207696        1.9823292723       22.0603179682
  S        12.2755159814        6.3062083281       11.4817646753
  C        11.7379842309        8.8706736842       11.1244710787
  H         6.2444576143       -2.1662459317       38.7646891802
  H         6.6453364513       -1.7694723876       37.1516365584
  H         6.6096331248       -0.5413212574       38.2979097017
  H         1.1466147304       -3.0918346057       17.6810889760
  H         2.7001633288       -2.6108260106       16.9178758837
  H         1.3279996022       -1.8419939529       16.3153079376
  H        16.9434831790        1.9868203845       21.1030099158
  H        17.9179819537        1.0488679141       22.1237240581
  H        18.0490627673        2.8102037086       21.9307849100
  C        12.4214093112        7.1051491106        9.9357296087
  N        12.2668894909        8.4372786616        9.9655922969
  O        11.3609786513       10.0325182755       11.3752146326
  S        12.9149770903        6.3268059961        8.4187820455
  C        12.1666621191        9.2289716617        8.7258487023
  H        12.6066126541       10.2428585380        8.8199105855
  H        12.7883050354        8.8702295260        7.9208452858
  C        10.7155586635        9.3724351836        8.3113497895
  H        10.8180553346       10.3766911659        8.0703551262
  H        10.5225756656        8.8480270337        7.4230226408
  H         9.9931907530        9.0449532499        9.0414242960
  H         4.8234723909        1.3765949507       12.3147119221
  C         4.1263236089        2.2077205744       12.5482969052
  H         4.6903611183        3.1276010265       12.7437705228
  C         3.1926595295        2.5712125245       11.4160042713
  C         3.4487223306        1.9902134886       13.8905397597
  C         3.8285490595        2.7820662019       10.0027872419
  H         2.7565569487        3.5450453930       11.5952966012
  H         2.3152453110        1.8030956408       11.3833453138
  H         2.6621374829        1.2596558075       14.1018016518
  H         3.1129044292        3.0170183910       14.2078167762
  H         4.2079641080        1.6234349847       14.5363594735
  C         4.6592492246        1.5044256982        9.5816731050
  H         2.9645019367        2.8802289436        9.3180763827
  H         4.4869630825        3.7353446982        9.9621761743
  C         5.3796748121        1.7091037398        8.2248876285
  H         3.8126360549        0.7972030567        9.4298434820
  H         5.3124070742        1.1174403568       10.3723682425
  C         6.6629523701        2.5042474488        8.5333028896
  H         4.8212590181        2.3226889156        7.4808067716
  H         5.6377513880        0.8226997935        7.6760007474
  C         7.8587076259        1.7053498887        8.9789297213
  H         6.9051460361        3.1566947273        7.6433780101
  H         6.3647513376        3.2359948298        9.2820018077
  C         9.1788254468        2.5042249443        9.1987127905
  H         8.0811379164        0.8600820622        8.2316471656
  H         7.6056748886        1.1108697600        9.8668433000
  C         8.8123559729        3.8035002230        9.9333160872
  C         9.6883083735        3.2356132201        7.9835645185
  C        10.3342986131        1.7252907465        9.9018252375
  C         9.2596778809        4.9166404636        9.1947298313
  C         8.1934672239        4.1812136357       11.1262154165
  C         9.8108613018        4.5636227841        7.9561092188
  C        10.1072663965        2.6174311482        6.8166822369
  H        10.0998140523        1.1915786258       10.8345974780
  H        10.6577286534        0.9091827016        9.2696647719
  C        11.4733785193        2.6717423091       10.2391481698
  S         8.7245332536        6.3735909691        9.8829229599
  C         8.0792270571        5.5158424569       11.2812596564
  H         7.9630418649        3.4040614890       11.8458466486
  C        10.2099167631        5.2209814370        6.8081516099
  H        10.0517821938        1.5304803473        6.8371226171
  C        10.4995717277        3.2852602269        5.6981736703
  H        11.0422663793        3.4800839175       10.8505230910
  H        11.9303805801        3.0731660945        9.3168766167
  C        12.5401535554        2.0889381346       11.2056127701
  C         7.5237789835        6.2071341195       12.5034272326
  C        10.5360007483        4.6134342462        5.6231682021
  H        10.2317686173        6.2976455874        6.8634056878
  C        10.8784603379        2.8853682142        4.4273069301
  H        13.5164175269        2.6210846946       11.1412062786
  H        12.7783627129        1.1058943447       10.7363143267
  C        11.9891461584        1.9919855896       12.6005447786
  C         7.7908801164        7.5632847327       12.7896396550
  C         7.0049910305        5.4100689641       13.6583634907
  C        10.8084657805        5.3246638726        4.2971095839
  C        11.1226839619        3.9573046714        3.6064937734
  S        11.1041458360        1.3803375194        3.6541062807
  H        11.5352578621        2.8757244600       13.1003088159
  H        11.2619233126        1.2075406871       12.6540741453
  C        13.2771467158        1.6897483648       13.5171116184
  N         8.2902958302        8.4906761322       11.8554336122
  C         7.5488728172        8.0641502517       14.0393574691
  C         6.7371153588        6.0060488573       14.8991779243
  H         6.9170580200        4.3033495219       13.5343060968
  C        12.0822536044        6.2854959341        4.4516887935
  C         9.5802929080        6.0460832112        3.7671437364
  C        11.5000864958        3.5400641822        2.2938452426
  C        11.4139384353        2.1935785434        2.1701435605
  H        13.7795751095        2.6006817245       13.6603433982
  H        13.9561666696        1.0111950543       13.0234340455
  C        12.9240922578        1.1047966501       14.8482427329
  S         8.2884369629        9.9457697281       12.5791665296
  N         7.8198423385        9.4665836503       14.0535896382
  C         7.0103174105        7.3995963638       15.1221017802
  H         6.5341853215        5.2950547008       15.6842129691
  H        11.9107700904        6.9684360259        5.2441320087
  H        12.0806287335        6.9367627325        3.5726299731
  C        13.3966100479        5.5072498064        4.5384077964
  H         9.0897021422        6.7594120622        4.4456606491
  H         9.9185282447        6.7854797571        3.0084453387
  C         8.3882972328        5.2327968090        3.0814038608
  H        11.8415100368        4.3588689191        1.6314621818
  C        11.8866206084        1.4700233224        0.9565603503
  H        11.8358260540        0.8098261399       14.9019861222
  H        13.4868460204        0.1695339141       14.9531751050
  C        13.1113795666        2.1778178099       15.9001952573
  C         6.7565887255        8.1088406172       16.3326765215
  H        13.3324920850        4.8936207768        5.4545526235
  H        13.5958935702        4.8439899203        3.7250968141
  C        14.5378205200        6.4068926114        4.7949239083
  H         7.9917186142        4.4384960371        3.6873004260
  H         8.6029182888        4.7583368234        2.1016240456
  C         7.2646819317        6.2353776822        2.7918832059
  C        11.9429244085        0.0809920635        0.7825348629
  C        11.9388604308        2.3348523432       -0.3133384966
  H        12.3701110486        2.9312337769       15.7982260449
  H        14.0300954863        2.7369938262       15.6604144967
  C        13.2252927428        1.7176970979       17.3644637324
  H         7.0797893147        9.1662055292       16.3831587209
  C         6.4616365943        7.6040646223       17.6383215840
  H        14.2361503156        7.0145826606        5.6215760218
  H        14.6368388346        7.1004383021        4.0394668467
  C        15.7449152224        5.6097539196        5.0150156903
  H         6.9095189135        6.8020618164        3.6665671212
  H         7.6832953130        7.0463484356        2.1875773979
  C         6.0705067586        5.6231392607        1.9775193441
  N        11.6715630485       -0.8972448365        1.7207900023
  C        12.2389215895       -0.4787567739       -0.4384717109
  C        12.2256650378        1.7359921217       -1.5361996186
  H        11.8493997760        3.3457581321       -0.4052855254
  H        13.3512598232        2.5388689964       18.0493785936
  H        14.1744790470        1.1556299155       17.4013250609
  H        12.5053748407        0.9475173050       17.6602181782
  S         6.0000975968        5.9889518940       18.0823767693
  C         6.4687558115        8.6342272315       18.7801715598
  H        15.6664910689        4.8793438696        4.2452897116
  H        16.6592659116        6.1148615731        4.6953049596
  C        16.0470963605        5.1650673687        6.4490654943
  H         5.4777713872        5.1062512601        2.6297162947
  H         6.3603190323        4.7806075991        1.3992438790
  C         5.4452792844        6.8228383931        1.1829099969
  S        11.5779399612       -2.3543276253        1.0172858861
  N        12.1741243369       -1.8762739508       -0.4435664844
  C        12.3940574241        0.2539749850       -1.6567107188
  H        12.2101751769        2.3532460203       -2.3997704083
  C         6.0341438943        6.6537654152       19.7448282287
  N         6.1364343660        8.0167900936       19.9095933675
  O         6.8003067950        9.8225979171       18.7049023133
  H        15.5141758108        5.8258081315        7.0937486810
  H        15.4699418357        4.2286268611        6.5924031633
  C        17.5260337514        5.0126310713        6.7462792079
  H         6.1168484864        7.2487025542        0.4727263630
  H         4.8479877501        6.2879354601        0.4658253516
  C         4.4763948202        7.9160540296        1.8362702151
  C        12.8092103376       -0.3852116993       -2.8348423249
  S         5.5807098738        5.7981796078       21.1936357481
  C         6.3298755059        8.7034830140       21.1217595630
  H        17.4057400608        4.6049450108        7.7464830657
  H        17.9619913990        4.2856427562        6.0598561097
  C        18.3610533456        6.2156366371        6.8497254364
  H         5.0600927521        8.5282081913        2.5362471732
  H         3.7075722420        7.3565669079        2.4063429929
  C         3.9055709037        8.8575099872        0.8099785798
  H        12.4974270880       -1.4186378487       -2.8045003843
  C        13.2236496971        0.0375646180       -4.1099848694
  H         5.6802181803        8.2723417404       21.8369425066
  H         5.8753322852        9.7119470784       20.8893549659
  C         7.7871268629        8.7658340993       21.5574119131
  H        18.1662429909        6.7051615359        7.8557153277
  H        18.1634664528        6.9994345741        6.1280645576
  C        19.8567242306        5.8930333198        6.6499902688
  H         3.6504552481        8.4116379840       -0.1171916069
  H         2.9773022184        9.2475822074        1.0949957941
  C         4.7601015478       10.0246557968        0.4736775840
  S        13.6757757979        1.6547338120       -4.5227529494
  C        13.3937385748       -0.9721104634       -5.1418249357
  H         8.3573914467        9.1786432399       20.7773288952
  H         8.2207577303        7.7815813267       21.7233858804
  H         7.8542412834        9.5730961408       22.3021129279
  H        20.4418438368        5.9063881289        7.5651510317
  H        20.0911098014        4.8696433142        6.3202162656
  H        20.2597386104        6.6991056188        5.9993527908
  H         5.1641690520       10.7972027824        1.2010213700
  H         5.5908531274        9.4859286653       -0.0048698841
  H         4.2637680629       10.5677491420       -0.3021964005
  C        14.0774678796        0.9459584248       -6.1124863171
  N        13.9566772169       -0.3839708884       -6.2225444895
  O        13.0980171073       -2.1551498624       -5.0200531351
  S        14.6930935598        1.9332918914       -7.3805185172
  C        14.2686141863       -1.2707428262       -7.3354297893
  H        14.4232531335       -2.3450411135       -7.0501834850
  H        15.1288761521       -0.8698622934       -7.9069994266
  C        13.1218847487       -1.1851751825       -8.2988216150
  H        12.7787785624       -0.1271755393       -8.5909026462
  H        12.3269728080       -1.6868530229       -7.8335770962
  H        13.3219333155       -1.7924891802       -9.2294545842
