352
 i =   105300, time =    52650.000, E =       100.3933983885
  H        10.6064889316        3.9630614957       31.3177815547
  C        10.7153701050        4.8937321604       31.8856413942
  H         9.7486353698        5.3761906456       31.8449189762
  C        11.6933889828        5.6516505106       31.0310433775
  C        11.2582182041        4.6851619978       33.3084221472
  C        11.0674833360        6.1035422941       29.7372849884
  H        12.1395728610        6.4659830840       31.5978915533
  H        12.5865153001        5.0697894089       30.7739760223
  H        10.4277717930        4.3176962097       33.9668612268
  H        12.0417909158        3.9823814169       33.2898081618
  H        11.5395563030        5.6804046516       33.6103919604
  C        10.2399465375        5.1254495888       28.8416248491
  H        11.8481778184        6.4973526290       29.0366079287
  H        10.4480420643        6.9795325996       29.9673943735
  C        10.7581350735        5.2994420350       27.4129645859
  H        10.3522173803        4.0482797740       29.1556003233
  H         9.2822937867        5.3505827508       28.9609563105
  C         9.8809420692        4.6588828502       26.3729740407
  H        11.8000368965        4.9528363021       27.3417476923
  H        10.8440553548        6.4307023470       27.1889276895
  C         8.6980986395        5.6019770587       26.0443137891
  H        10.5294840423        4.5349515669       25.5204943344
  H         9.6540220729        3.6887493494       26.7356668642
  C         7.4827892909        4.8823966923       25.3961023250
  H         8.4231926928        6.0639871052       26.9275662625
  H         9.0278429093        6.4459895894       25.4529598845
  C         7.1982933387        3.5547120124       26.0891722878
  C         7.8796454086        4.1996479656       24.1850488225
  C         6.1953945633        5.7891695788       25.2498432278
  C         7.4225363228        2.4360834222       25.2523743560
  C         6.6542474766        3.1772008331       27.3065195491
  C         7.8761769459        2.8668049411       24.0244388638
  C         8.3668618891        4.8876368242       23.0520795890
  H         6.4640115336        6.5633055523       24.6370622521
  H         5.9742466703        6.3478921387       26.1692800451
  C         4.9457378438        5.1922246077       24.6002244644
  S         7.1626503135        0.9015499622       25.9899220730
  C         6.6093665014        1.7644814166       27.4043985682
  H         6.4365083616        3.9382096242       28.0571552923
  C         8.3501758027        2.3261643695       22.8448348942
  H         8.4319754656        5.9483913695       23.0696908729
  C         8.7593891574        4.3209457467       21.8694061111
  H         5.2136484995        5.2786320154       23.5265101748
  H         4.7846661035        4.1067118459       24.8380123534
  C         3.5954729656        5.9690378509       24.7842860577
  C         6.2426723310        1.0015991110       28.5958698327
  C         8.7207622434        2.9894654052       21.6926076621
  H         8.2130195362        1.2478607673       22.7924738594
  C         9.1922364017        4.7781555538       20.6910303244
  H         2.8603991910        5.4298731171       24.2736793337
  H         3.6065537905        7.0263674088       24.3488100857
  C         3.1549292524        5.9867121383       26.2362038794
  C         6.2549160748       -0.3956918937       28.7279433031
  C         5.5579719401        1.7437200567       29.6998713190
  C         8.9526242805        2.3390294004       20.3893030899
  C         9.2939212478        3.7566168130       19.7536809962
  S         9.4102364363        6.3306354378       19.9937315694
  H         2.3114060242        6.6026768203       26.2776746234
  H         3.9697448527        6.4106326825       26.8385597785
  C         2.7416400729        4.6541910128       26.8214771779
  N         6.7797564440       -1.3952255928       27.8711773595
  C         5.8984588771       -0.9779187692       29.9410234293
  C         5.3450151647        1.1877548657       30.9804835509
  H         5.3147988727        2.8295106569       29.5548723595
  C         7.7761635104        1.5245532715       19.8001685258
  C        10.2572644009        1.4204019004       20.5279571432
  C         9.6584924936        4.2157326918       18.4320714544
  C         9.7554051965        5.5707938049       18.4734991658
  H         2.4478139034        3.9661820148       26.0243933485
  H         3.7036393645        4.2235564148       27.1852554011
  C         1.8072975671        4.7517592606       28.0425759456
  S         6.7383608973       -2.8666205570       28.6095359237
  N         5.9910182288       -2.3992179555       29.9515766603
  C         5.6165948588       -0.2794226256       31.1500512969
  H         4.8009279219        1.7194116433       31.7481392928
  H         7.3599434689        1.0087169800       20.6306892419
  H         8.2006892060        0.7298621574       19.1928697236
  C         6.6243042389        2.2987901193       19.0473748191
  H        10.4000092844        0.9735108718       19.5480125779
  H        10.0750481514        0.5521355570       21.2198244279
  C        11.4623493963        2.2039783376       20.8764019195
  H         9.9232653388        3.5165889485       17.6754401131
  C        10.2158436120        6.4429094837       17.2920073116
  H         1.1912052000        3.8570649277       27.9654541140
  H         1.0682805333        5.6089811338       27.8410740378
  C         2.5031623265        5.0612968610       29.3062847322
  C         5.3632218979       -1.0064972216       32.3305316009
  H         7.1953645457        2.5352132807       18.0258597534
  H         6.1873217209        3.2047344018       19.5193303230
  C         5.6165500166        1.1787759516       18.6592304384
  H        11.3566541718        2.7118114709       21.8617253050
  H        11.5613819019        3.0241109185       20.1518486333
  C        12.7496153825        1.4666790710       21.0922639385
  C        10.4272449195        7.8420406180       17.2647252080
  C        10.4472400166        5.8398641614       15.9671376831
  H         3.3030225125        4.3470552432       29.4754479574
  H         3.0501825266        5.9594257534       29.2568204719
  C         1.8857869109        5.0932670580       30.7307608288
  H         5.6581566526       -2.0871306394       32.2728421299
  C         5.0410841709       -0.6622983115       33.6343608634
  H         5.2039108686        0.6618597746       19.5178941757
  H         6.0386747613        0.3196600219       18.1461223736
  C         4.5522089753        1.5711158628       17.7551572912
  H        12.6493942851        0.6516903148       21.8736586079
  H        13.1558341315        1.0492624075       20.1901245914
  C        13.8169284629        2.4559123203       21.5851015170
  N        10.3147979984        8.6922938333       18.3916303843
  C        10.6879325665        8.5676028381       16.1046848416
  C        10.7668355732        6.5321418794       14.8113674456
  H        10.3470627342        4.8201448302       15.9371338153
  H         2.6988890042        5.4784495120       31.3519214906
  H         0.9611114816        5.6131176797       30.8438416174
  H         1.6721499629        4.0458134561       31.1028766890
  S         4.6900685852        0.9621006349       34.2650435310
  C         4.8646858436       -1.7022542161       34.6913456387
  H         4.5133173279        2.6355101431       17.5399102011
  H         4.5366226541        0.9854054036       16.8729530028
  C         3.1724141474        1.2028728507       18.2608200112
  H        13.4482519268        3.0668602344       22.4231138743
  H        13.8885287770        3.0264134830       20.7313423096
  C        15.1446731557        1.8077554082       21.9186891757
  S        10.4042223370       10.2820187022       17.8872789519
  N        10.7254799504        9.9648697965       16.3054450481
  C        10.8502346495        8.0203730894       14.7669664220
  H        10.8605475707        5.9281412717       13.9466998613
  C         4.3347010805        0.1346815004       35.8515044772
  N         4.5103725722       -1.1868292082       35.8662855370
  O         5.0481725887       -2.8900153305       34.4518648506
  H         2.3282838934        1.4785526554       17.6225711462
  H         2.9218111280        1.8400761664       19.0540488388
  C         3.0060087681       -0.2791186498       18.6955835006
  H        15.0065713965        1.2651934207       22.8734379206
  H        15.4465080986        1.1922041816       21.0715422100
  C        16.1366183898        2.9947937572       22.1226008079
  C        11.0236081078        8.7944075588       13.6402483431
  S         4.1086526099        0.8609696759       37.4628751791
  C         4.5746182014       -1.9816362336       37.0972729054
  H         3.8749182604       -0.8989054955       18.5785718667
  H         2.5986171246       -0.3132705715       19.7367065157
  C         1.8404810041       -0.9166704003       17.9121397689
  H        15.7234042616        3.6752748069       22.8679724574
  H        16.2032566874        3.5009309513       21.1696780185
  C        17.6242256701        2.5580802119       22.5299385355
  H        10.9161492085        9.8547258338       13.7256626168
  C        11.4250803824        8.4073983723       12.3405423687
  H         3.6812409991       -1.8348193940       37.7046698417
  H         4.4520163735       -3.0504810504       36.8878238760
  C         5.9858388447       -1.8760923018       37.7122736342
  H         0.9132391349       -0.3283464318       17.7663341527
  H         1.4939308714       -1.7321139377       18.5192011801
  C         2.3475816825       -1.3848363733       16.6300278146
  H        17.8524774069        1.6658643104       21.9362393864
  H        18.3311361198        3.3319368398       22.2469308400
  C        17.5582867160        2.2005915899       24.0398628561
  S        11.8415352827        6.7913806550       11.6933521519
  C        11.5423648269        9.4913532070       11.3298814117
  H         6.0733480330       -0.9733186310       38.2573572892
  H         6.2152252603       -2.7042901176       38.4484740369
  H         6.7764539872       -1.8372869322       36.9724481113
  H         2.7695666282       -2.3840691552       16.7387151386
  H         3.0739004442       -0.7865976187       16.1285706721
  H         1.4582232573       -1.3924064969       16.0062142525
  H        18.6475037851        2.1236067611       24.3543132429
  H        17.1379164871        1.2528268060       24.3199987744
  H        17.1263958415        2.9109936376       24.7169007562
  C        12.0587971865        7.5949914877       10.1207711846
  N        12.0367459099        8.9330734095       10.1638538197
  O        11.4329258735       10.6675562713       11.5321049956
  S        12.6459968728        6.8052516439        8.6448314691
  C        12.4072255340        9.7470466730        9.0381049745
  H        12.6346175332       10.7997791513        9.4306976097
  H        13.3627997086        9.4674672524        8.6846873287
  C        11.3194176997        9.6840980443        8.0933564149
  H        10.8087096982        8.6931324401        7.9341828260
  H        10.7020024653       10.3483067029        8.6348453943
  H        11.5806091866       10.2152091268        7.1534225068
  H         2.1208075459        3.5561088071       12.5845481297
  C         2.5995697062        2.5925672669       12.7923007541
  H         1.9022859006        1.8032400156       12.5182763706
  C         3.8967785622        2.2984708393       12.0467615259
  C         2.7617141031        2.3947524105       14.2311807252
  C         3.7696288199        2.2355049739       10.5077822392
  H         4.2462033088        1.3951230957       12.5397574449
  H         4.6926333314        2.9768018620       12.1716983107
  H         3.7193159574        2.4287516306       14.7130120019
  H         2.3451223686        1.4589635890       14.5076906273
  H         2.0268242455        3.0115038602       14.6834117382
  C         4.7764359467        1.1750711920        9.9098568686
  H         2.7600054021        2.0799241035       10.1804376688
  H         3.9714568813        3.3014233085       10.1360334410
  C         5.3854404618        1.7013660092        8.5715758015
  H         4.3624630503        0.1553642220        9.8843713517
  H         5.6496987034        0.9122716817       10.5655800040
  C         6.4809009239        2.7479417249        8.6995492456
  H         4.4825096156        2.0926330701        8.0176014356
  H         5.6476547157        0.8174042097        7.9826031655
  C         7.7651964593        2.2001562563        9.1939255731
  H         6.5015936316        3.3170306388        7.7421400268
  H         6.1554356773        3.4693984632        9.5100803783
  C         8.9638142819        3.1751719652        9.3194240987
  H         8.0199477040        1.3794853499        8.5136024734
  H         7.5631678066        1.7754934705       10.1401654456
  C         8.5510421349        4.4342513833        9.8851270811
  C         9.3986694542        3.7890077056        7.9697504401
  C        10.1245515454        2.4210139583       10.0476570606
  C         8.7984348331        5.5220982771        8.9922112579
  C         8.0226524371        4.8629904118       11.0424911784
  C         9.3068984630        5.1069459351        7.8202888657
  C         9.9288838087        3.1412715213        6.8302372315
  H         9.7562908434        1.9167812037       10.9671266445
  H        10.3126115473        1.6649079808        9.2887055898
  C        11.4015353525        3.2774737050       10.1122211261
  S         8.5801436762        7.0524218732        9.6706893069
  C         8.1081569641        6.2094807782       11.1367105871
  H         7.7978550462        4.0608523506       11.7662565653
  C         9.6809800591        5.6948888565        6.6292932783
  H         9.9972625586        2.0670898338        6.8480087898
  C        10.3182144037        3.7155571293        5.6543804726
  H        11.1569506560        4.2109544358       10.5594605891
  H        11.8713583080        3.5050224757        9.2138648325
  C        12.4327706929        2.7588774369       11.1805397410
  C         7.7745684718        6.9433711759       12.3845171260
  C        10.2722326202        5.0416258164        5.5126105179
  H         9.6869871667        6.7717445425        6.6184059214
  C        10.8591067079        3.3518518488        4.4742529277
  H        13.0862752770        3.6239556614       11.2382535498
  H        12.9472697232        1.8605001256       10.8133171549
  C        11.9106525650        2.5831102887       12.5738841911
  C         7.8335629905        8.3347341474       12.6439968388
  C         7.4710021709        6.1401480389       13.5115403134
  C        10.7693581938        5.7229015954        4.2738023026
  C        11.0998558992        4.4225214732        3.6138510687
  S        11.0839931858        1.7837251917        3.7025179676
  H        11.2594812025        3.4474549513       12.8091847627
  H        11.3748712981        1.6611486944       12.7491801896
  C        12.9902196608        2.6113854774       13.6061451622
  N         8.1050984452        9.2872488393       11.6828412955
  C         7.5575783458        8.8607359395       13.9149268708
  C         7.2480822455        6.6749950374       14.7444877833
  H         7.3499633156        5.0292548728       13.4427387038
  C        12.0521751745        6.5469096654        4.4951432267
  C         9.7471272683        6.5354200001        3.5299167354
  C        11.5366451306        3.9742487854        2.3630838754
  C        11.6273878713        2.5889055494        2.2379438578
  H        13.7398065146        3.3438762369       13.3622403162
  H        13.4449582773        1.6432376960       13.6070316035
  C        12.4999845950        2.8024630001       15.0318803086
  S         7.9490921160       10.7710197441       12.3669341163
  N         7.6911291078       10.2770111779       13.9495071208
  C         7.2756250131        8.0817598006       14.9895157205
  H         6.9377110896        6.0491128054       15.5219296007
  H        11.8738816221        7.2648717178        5.2693573310
  H        12.2558547020        7.0354862290        3.5498569744
  C        13.2302412621        5.7003779247        4.8988857428
  H         9.2674614718        7.2419181953        4.1937951624
  H        10.1832864622        7.2353672544        2.7929465717
  C         8.6476947418        5.6448544239        2.9252367087
  H        11.5757559859        4.6913235026        1.5486880059
  C        11.9552649567        1.8872334318        0.8982402707
  H        12.1170149690        3.8331948393       15.2444328468
  H        11.5331350119        2.2179297386       15.0354797405
  C        13.5188297505        2.2573806191       16.0880011444
  C         7.0709045437        8.7779621485       16.2433012139
  H        12.9659829780        5.1850522757        5.8286730062
  H        13.5095225264        5.0180111927        4.2021774795
  C        14.3912421187        6.5726235916        5.1405217105
  H         8.1528467386        5.0475079342        3.6849876481
  H         9.0142831587        4.9648530903        2.1501608635
  C         7.6382303550        6.5848264613        2.2351374458
  C        12.0365435987        0.4658370367        0.7504690832
  C        12.1293119400        2.7270160239       -0.3007825290
  H        14.4829822213        2.5487593470       15.7395198842
  H        13.6364222514        1.1870344352       16.1269233429
  C        12.9414177824        2.7777084874       17.3681004152
  H         6.8490415321        9.7868043128       16.0934040587
  C         6.8428023417        8.3026338559       17.5225216556
  H        14.3891018524        6.9530507193        6.1439716688
  H        14.4516908299        7.3476445422        4.4528673626
  C        15.7960572726        5.9215253208        5.0909929944
  H         7.2785873369        7.3516134801        2.9448824416
  H         8.1574723721        7.1583724042        1.4446517409
  C         6.5716694063        5.7276804544        1.5736859899
  N        11.9508896986       -0.4295997463        1.7709648943
  C        12.2941861447       -0.1521549001       -0.4551879478
  C        12.2987112926        2.0934613674       -1.5283517179
  H        12.1242660180        3.7787133760       -0.2532355255
  H        11.8764359357        2.5767116270       17.5293213422
  H        13.1690611251        3.8263430315       17.4576344631
  H        13.4301752070        2.1592278559       18.1488223968
  S         6.8143095602        6.6958358258       18.0528373710
  C         6.7627020795        9.3264140748       18.5420119095
  H        15.9452632078        5.1242985357        4.3446747368
  H        16.3830134705        6.7118956535        4.7616495321
  C        16.3395697876        5.4887761201        6.4861899040
  H         6.4351213318        4.6876085057        2.0185060793
  H         6.9365396505        5.6159304528        0.6016937503
  C         5.1764956975        6.2525020148        1.5195234747
  S        12.0511937091       -1.9147469777        1.1398387187
  N        12.4380308891       -1.5638830805       -0.3574112893
  C        12.4303615687        0.6181133413       -1.6385107212
  H        12.3237642632        2.7060208753       -2.3984410970
  C         6.3598512477        7.4329254429       19.6426620214
  N         6.3445837318        8.7516623922       19.7238569743
  O         6.7671730720       10.5263643668       18.2505574759
  H        16.3055658585        6.3122671165        7.2200450066
  H        15.6463530339        4.7831562359        6.9457741011
  C        17.7927442752        5.1262719314        6.5366875081
  H         4.5339492412        5.5961303801        1.0062364456
  H         4.8960926881        6.1776750242        2.5243103967
  C         5.1300817246        7.7345773994        0.9392123511
  C        12.7314361945       -0.1002375770       -2.8064061215
  S         6.1765047441        6.4264362871       21.1620311023
  C         6.2693423628        9.4186774943       20.9774197608
  H        18.1246659398        4.4690075739        7.3854899797
  H        18.0354362749        4.4813104346        5.6819053679
  C        18.7748759959        6.2748414486        6.5732075195
  H         5.2699408919        7.6517253881       -0.1096301474
  H         5.9813760661        8.3108374084        1.2944321279
  C         3.9441559593        8.5477713234        1.2568816180
  H        12.4400675899       -1.1409500807       -2.8110053239
  C        13.2598331771        0.2788132476       -4.0049328727
  H         5.5531596380        8.9142058996       21.6305751359
  H         5.8461293453       10.4108868180       20.8169715029
  C         7.7022675716        9.5170954280       21.5091324580
  H        18.3889399762        6.9683792193        7.2916662628
  H        18.6616550688        6.8522650626        5.6692793303
  C        20.1744428427        5.8672029128        6.9505617120
  H         3.9750313233        9.4368267589        0.7202070783
  H         3.1370699111        8.0030851858        0.7930519335
  C         3.8273793919        8.8859227745        2.7631230387
  S        14.0346096376        1.7567405651       -4.3857720898
  C        13.3542770108       -0.7582128867       -5.0404173914
  H         8.0152325084       10.6022197260       21.6606020541
  H         8.5062610337        9.1759821690       20.8142462442
  H         7.6979261391        9.0561474810       22.4560562250
  H        20.8997763671        6.2313860843        6.2515836796
  H        20.3211646830        6.2817280576        7.8844457874
  H        20.3070874303        4.7643779348        7.0439736038
  H         4.7396558837        9.3762626996        3.2529800007
  H         3.1975068589        9.7308419678        2.8856649125
  H         3.5683446492        8.0675685838        3.4410720503
  C        14.2876452057        1.0465093910       -5.9596963114
  N        13.9406628241       -0.2248776995       -6.0781820292
  O        12.8798686090       -1.8704752601       -4.8828993415
  S        15.1005728013        1.8566691416       -7.3228948777
  C        14.0119994252       -0.9604224656       -7.2731604770
  H        14.2212637533       -2.0218804232       -6.9999225546
  H        14.7677692362       -0.5177894360       -7.9027179282
  C        12.7450962636       -0.8711986523       -8.0824591128
  H        13.0918895606       -1.0779746601       -9.1337719959
  H        12.2612733131        0.1432211204       -7.9159064472
  H        11.8814240105       -1.5089804575       -7.8056735494
