352
 i =    77900, time =    38950.000, E =        99.7812675256
  H        12.5425982628        6.6205173450       31.9742426584
  C        11.7862656069        5.8903917779       32.2871758220
  H        12.2426544953        4.9483839822       32.0876416501
  C        10.6910357123        5.9855673754       31.2573661584
  C        11.3112345349        6.1025669540       33.7344438157
  C        11.3147720430        5.8857980775       29.8799861876
  H         9.9368901974        5.2412201755       31.3480361557
  H        10.2246426420        6.9417051259       31.4036340806
  H        10.3994251497        6.5977861180       33.8692785201
  H        11.1134677171        5.2314021013       34.3632781829
  H        12.0141406283        6.7036753852       34.2241733700
  C        10.2145684270        5.8075837998       28.7951843080
  H        11.9658690142        5.0216736211       29.8315005702
  H        12.0696221457        6.7388631474       29.7003156444
  C        10.8405523464        5.5611265108       27.4198897317
  H         9.6357710723        4.8665692670       29.0339379215
  H         9.6778611318        6.7646236243       28.8087147645
  C         9.8754195752        4.9917571611       26.3555307968
  H        11.7854651237        4.9279474540       27.5834407132
  H        11.1497697395        6.6183221733       27.1897680811
  C         8.6814889449        5.8830703601       25.9259622559
  H        10.5237837351        4.9382742227       25.4615410391
  H         9.6053203860        3.9672149199       26.5942896180
  C         7.4099860265        5.1079886103       25.3877168529
  H         8.4009571032        6.3872954153       26.7542299894
  H         9.0905262158        6.6372922938       25.2730424120
  C         7.0865076875        3.7690684794       26.0967413718
  C         7.7930801871        4.3952399943       24.1349528462
  C         6.1365236573        6.1454657990       25.2883303463
  C         7.1940994315        2.6366097555       25.2772656263
  C         6.5667818568        3.4377056700       27.3868140288
  C         7.7149209582        3.0432322829       24.0649327570
  C         8.3461403404        4.9846473573       23.0455867951
  H         6.4378650397        6.9680578588       24.6729630190
  H         6.0538140259        6.5913378611       26.2362647310
  C         4.8503205677        5.5003706960       24.8701674103
  S         6.7400720731        1.1583015762       25.9756002568
  C         6.3760941144        2.0898743957       27.4723967957
  H         6.3629674594        4.2130733329       28.1118167544
  C         8.0999446628        2.4124342870       22.9239599487
  H         8.1591642442        6.1054955887       23.0538711595
  C         8.7144477391        4.3474903622       21.8503446365
  H         4.8231806264        5.1810950428       23.8760899369
  H         4.7266465884        4.5995177209       25.5212596844
  C         3.6414154190        6.5017970122       24.9888852121
  C         6.0205464135        1.2985878100       28.7294074610
  C         8.6190920078        3.0163970793       21.7930324648
  H         8.0206098102        1.3704609026       22.9473922071
  C         9.1262138889        4.7537934889       20.6167393982
  H         2.9277381278        6.0936003139       24.1326555924
  H         3.9743440113        7.5208449493       24.7524206935
  C         3.0803901482        6.5637442393       26.3985324367
  C         6.0608630633       -0.0770080745       28.9575732947
  C         5.4855471679        2.1371912223       29.8420751802
  C         9.0513645389        2.3628345322       20.4456910764
  C         9.4064849746        3.7108269135       19.7644312954
  S         9.3908884820        6.3204495330       19.9835911190
  H         2.7545825898        7.6190249889       26.5667937332
  H         3.9407263781        6.2706226615       27.0218318969
  C         1.9885835278        5.6068721699       26.6987563848
  N         6.3426094409       -1.0832568053       28.0234126845
  C         5.6780946894       -0.6759879837       30.1515474932
  C         5.2144852300        1.5800677027       31.0830231666
  H         5.2154752690        3.2238757227       29.6901973609
  C         7.8659766463        1.6445178637       19.7843654698
  C        10.3957227585        1.5093477429       20.6969148229
  C         9.7004422934        4.2359505785       18.4616699009
  C         9.6827068213        5.6176368846       18.4093026604
  H         1.1067285101        5.8843540255       26.2075731493
  H         2.2040188114        4.5841612274       26.3065822310
  C         1.4898679502        5.5827264479       28.1427913360
  S         6.5816949354       -2.5117115407       28.7966029765
  N         5.9330936824       -2.0755947672       30.1954931799
  C         5.4240080786        0.1222695067       31.2806655639
  H         4.8844279909        2.2285205036       31.7897937607
  H         7.2540364936        1.1641515459       20.5534484904
  H         8.3761293768        0.8813761615       19.1958933671
  C         7.0265265955        2.5761667084       18.9323818818
  H        10.5260286246        0.9748829921       19.8456103863
  H        10.2004793639        0.7319830546       21.4497345229
  C        11.6520045817        2.3190220500       21.1420362894
  H         9.8071889510        3.6045092220       17.6014679841
  C         9.9299654639        6.4450000352       17.1916294765
  H         0.7509401126        4.8283532675       28.3251895302
  H         1.0170592563        6.4852258194       28.4101984628
  C         2.6263344247        5.4341217635       29.1638835321
  C         5.2058273836       -0.5533462886       32.5699172045
  H         7.4961320384        2.8973558842       18.0002238785
  H         6.6638852503        3.4245416831       19.5371426248
  C         5.8378112533        1.6886026034       18.3748756405
  H        11.4906274673        2.8192855177       22.0301496952
  H        12.0503740488        2.9994274538       20.3733892126
  C        12.8799846216        1.3889942167       21.2648332003
  C         9.8577359771        7.8243851289       17.0506646570
  C        10.3121784668        5.7456038563       15.9505818594
  H         3.2504641625        4.5657361380       28.9372063583
  H         3.3732785822        6.2371414849       29.0669431494
  C         2.0982027499        5.3469701495       30.5694941999
  H         5.4135755479       -1.5301345424       32.4337133979
  C         4.9005797427       -0.1577764747       33.8253865574
  H         5.4322911191        1.2309596311       19.3815476337
  H         6.1947169396        0.8257684943       17.7771600937
  C         4.7954455470        2.5258008956       17.7016690332
  H        12.6807446991        0.5883957623       21.9872306642
  H        13.0590923692        0.7143370179       20.4308553621
  C        14.2254440552        2.2029479739       21.6021292884
  N         9.6811605648        8.7260148911       18.0723553600
  C        10.3036312711        8.4640091417       15.8700873854
  C        10.6685164083        6.3287800610       14.7741512364
  H        10.5047739354        4.7341273084       16.0577608112
  H         1.8723373882        6.3619648249       30.9824587291
  H         1.1277985440        4.8716362473       30.4986241478
  H         2.7458942249        4.7280566216       31.2537098032
  S         4.4848366315        1.4039106014       34.3400682485
  C         4.9954170153       -1.1983446704       34.9293833787
  H         4.8309449593        3.5328702794       18.1117958847
  H         5.1130418153        2.6199521438       16.6486784910
  C         3.3795308977        1.8834793529       17.9642486576
  H        14.2975865798        3.1579245740       21.1245698447
  H        14.9189655643        1.5994756133       21.0122282701
  C        14.4596790655        2.3098518580       23.1389642375
  S         9.9528331929       10.2482564506       17.5124827962
  N        10.4417133364        9.8119456030       15.9753088146
  C        10.6580618517        7.7899806060       14.6686625285
  H        11.0541770256        5.7177069237       14.0154874954
  C         4.4037070502        0.6871596706       35.9607352788
  N         4.6337192866       -0.6521695547       36.0976555407
  O         5.2621187862       -2.3266481007       34.7112360286
  H         2.6130817845        2.6274322953       17.9199668398
  H         3.3119116261        1.5946797218       18.9623475005
  C         3.1049757852        0.5686525381       17.1496735604
  H        13.4694643608        2.4670180044       23.5482638822
  H        14.7718882310        1.3122088082       23.5024222581
  C        15.4893694348        3.3064309114       23.5800631772
  C        10.9774404336        8.5576976410       13.4833700776
  S         4.0446474346        1.5473496045       37.4334066924
  C         4.7299322613       -1.3965590142       37.3470489539
  H         2.6923209990        0.9403238175       16.1435253717
  H         3.9918757462       -0.0365136349       16.9739092301
  C         1.9159226833       -0.2219938011       17.7529156984
  H        15.5111706508        3.1874237857       24.7099710163
  H        15.1321808110        4.3001055966       23.3062119256
  C        16.8650017033        3.1350224363       22.9547414507
  H        10.7919304597        9.5795764525       13.5824889856
  C        11.6230262715        8.1689912236       12.3035189218
  H         3.9647322137       -0.9190338576       38.0506529194
  H         4.3332713893       -2.3446112885       37.2110479604
  C         6.1527588818       -1.4106976238       37.9848441660
  H         1.5644155126       -0.7792630733       16.8764136417
  H         1.0637128819        0.3471331304       18.1964513341
  C         2.5298559159       -1.3163974357       18.5897016766
  H        16.7312914365        2.5935529575       21.9713790489
  H        17.3159580654        4.1748247008       22.8710579871
  C        17.7829427354        2.2295834763       23.8068497646
  S        12.2854247697        6.6839003667       11.8292513060
  C        11.6974528205        9.2769546581       11.3135102061
  H         6.1970339983       -2.1907321773       38.7338074654
  H         6.8773949419       -1.7034908351       37.1829222549
  H         6.4866576514       -0.4873182518       38.4423752026
  H         2.2440837163       -1.0917221393       19.5957265077
  H         3.6218997315       -1.2836110905       18.6512431360
  H         2.3133423414       -2.3563298988       18.1758878182
  H        17.1773472938        1.4423811660       24.2128316700
  H        18.3610432237        2.6733448283       24.5737685959
  H        18.5360936878        1.7066645892       23.2072165301
  C        12.7126580653        7.5321907278       10.2792929101
  N        12.3242346881        8.8650011080       10.1677830225
  O        11.0726887517       10.3271597459       11.3739433991
  S        13.4142449384        6.7357806843        8.9047032080
  C        12.3111239512        9.6837374825        9.0357907652
  H        12.4301549708       10.7529110843        9.3236469697
  H        13.2304245133        9.5052892102        8.5169277437
  C        11.0405398372        9.4606230127        8.0936560385
  H        10.6671241998       10.4656862860        7.8875038511
  H        11.4523308021        9.0031566132        7.1949788842
  H        10.2643093383        8.7646067045        8.4818625324
  H         2.6045281756        0.9166963934       13.0951417941
  C         3.2617397209        1.6974403128       12.7130780724
  H         4.2750029256        1.3254440859       12.7793203520
  C         2.8886615046        2.1341723056       11.3268716335
  C         3.1861897697        2.7991272513       13.7400219020
  C         4.0231284971        2.6090489900       10.3673595432
  H         2.1817362787        2.9758003199       11.4283627453
  H         2.2706768820        1.3536268234       10.8528374436
  H         4.1333666128        3.3460210844       13.6903300389
  H         3.2611539672        2.3243388555       14.7074866074
  H         2.3329135157        3.4055770833       13.6313006070
  C         4.9085181139        1.5091180818        9.7688921638
  H         3.5914397766        3.2538764622        9.5687692609
  H         4.6678853727        3.3376875354       10.9437918749
  C         5.5712339445        1.9506549449        8.4121094071
  H         4.2602152271        0.7172916170        9.5677633012
  H         5.6736458357        1.1984885990       10.4025543305
  C         6.8005696044        2.8555617170        8.7510043025
  H         4.8344785989        2.4465139487        7.8078925702
  H         5.8824730317        1.1194817099        7.8228085931
  C         7.9623407231        2.0769565903        9.2452232410
  H         6.9898843256        3.2661784315        7.7158546090
  H         6.4865787008        3.6831316673        9.3769539223
  C         9.2624781350        2.9505863332        9.2414170253
  H         8.1157877556        1.2046376521        8.5915293120
  H         7.7087209055        1.6058755112       10.1832874450
  C         8.8817459045        4.2987073886        9.8472988670
  C         9.6632345250        3.6744610161        7.9316906722
  C        10.5342363047        2.3674903108        9.9664083224
  C         9.0557467960        5.4078154310        9.0563249246
  C         8.3592992406        4.5912384770       11.0986647433
  C         9.5962803667        4.9839227130        7.8393156075
  C        10.0557754114        3.0828303990        6.7142840059
  H        10.0014017505        1.9726752598       10.8183372494
  H        10.8880349496        1.5255404380        9.3926755401
  C        11.7157763146        3.3059697533       10.4377454400
  S         8.6038527069        6.8891662431        9.8511674752
  C         8.2819135025        5.9440257980       11.2853545403
  H         8.2961543482        3.7709366878       11.8000602439
  C         9.9784453340        5.6064796193        6.6927376297
  H        10.1577324113        2.0283317487        6.7759152159
  C        10.4532022380        3.6644301357        5.5549655196
  H        11.3681865814        4.1484000225       10.9717512445
  H        12.1001582675        3.6433595827        9.4453369299
  C        12.8341687461        2.5301620833       11.1921906682
  C         7.8092733753        6.6555296908       12.5248505062
  C        10.4311031869        5.0167416224        5.4926813098
  H        10.0228939371        6.6894405581        6.6670382436
  C        10.9606631578        3.2750564496        4.3098873273
  H        13.6239068901        3.1950769681       11.2228972077
  H        13.1311897700        1.5932705508       10.6496226126
  C        12.5118476322        2.0749923250       12.6006284389
  C         7.7362068523        8.0717490121       12.7740644154
  C         7.3637714560        5.7811260337       13.6754764198
  C        10.8857846822        5.6564438957        4.2000137551
  C        11.1573183771        4.3651725156        3.4894558913
  S        11.1828807899        1.7610477554        3.5643900262
  H        11.8490746682        2.8713547294       12.9048652971
  H        11.9270277332        1.1793332433       12.5476927272
  C        13.7798464421        1.7616548592       13.4632171903
  N         7.9623613449        9.1017785060       11.8447795236
  C         7.4375054501        8.6084608718       14.0188377960
  C         6.8949566878        6.2502369077       14.8813390204
  H         7.4126546638        4.7512105067       13.5576250234
  C        12.2307396322        6.4884689771        4.2892392034
  C         9.7446034480        6.4580016726        3.6162918325
  C        11.4378688047        3.9591957423        2.1542568033
  C        11.4335215881        2.5836893513        2.0664700835
  H        14.3441736959        2.6768668182       13.5136568527
  H        14.4370159374        1.0140564888       12.9560823275
  C        13.2662946035        1.2547102185       14.8307017027
  S         8.0801364282       10.5058596724       12.6638593393
  N         7.6856810982        9.9833839376       14.1493177263
  C         7.1120149514        7.7404468345       15.1461070157
  H         6.5694064877        5.5706076910       15.6471148037
  H        12.0825292275        7.3584527272        4.9172457392
  H        12.4690743893        6.8170510957        3.2214634349
  C        13.3820875190        5.6870239998        4.7821341305
  H         9.4140958670        7.2777966240        4.3152853864
  H        10.1562060592        7.0119327834        2.7950582613
  C         8.4704798310        5.6829534499        3.2738661507
  H        11.6102027091        4.7394332325        1.3646309789
  C        11.6994958775        1.7514625902        0.7951645009
  H        12.3188810003        0.7720540603       14.6225837273
  H        13.9200341351        0.4679662579       15.2421409795
  C        13.0133637820        2.3574581285       15.8607547225
  C         6.8569071190        8.3698908454       16.3679107526
  H        13.0637442977        5.2075364620        5.7020236389
  H        13.5825505284        4.7464958727        4.2026209258
  C        14.7261079000        6.4420122060        4.9077340824
  H         7.8814414365        5.4377014785        4.1859414141
  H         8.8284091673        4.7319222772        2.9543148650
  C         7.6830937025        6.3740792330        2.0981572489
  C        11.8726139252        0.3828980281        0.6240256756
  C        11.8849341020        2.5207553793       -0.4465973840
  H        12.3020680348        3.1231461510       15.4655804498
  H        13.9446689478        2.8701316128       16.0114999504
  C        12.5976337545        1.9637675289       17.2549014793
  H         6.8619409273        9.4707418345       16.3210865147
  C         6.5381574394        7.9766611955       17.6380178781
  H        14.6387506450        7.2915405226        5.6003144569
  H        15.1034763132        6.8084424514        3.9630363247
  C        15.7440698033        5.4792583103        5.4428975897
  H         7.7226145232        7.4351197407        2.2660196366
  H         8.2429570638        6.1756587823        1.1851198491
  C         6.2924132207        5.7400935163        1.9150014047
  N        11.5029677594       -0.5800093126        1.5874000220
  C        12.1337692581       -0.2449890363       -0.5669377089
  C        12.1381043704        1.8981765352       -1.6708358423
  H        11.7888623614        3.6399097867       -0.3726743719
  H        13.2007626466        1.1484393679       17.6395900632
  H        11.6027471009        1.5700762682       17.1484197518
  H        12.4780109492        2.7330697980       17.9903808888
  S         6.2571451095        6.3989898199       18.2362360389
  C         6.4153046914        8.9893981788       18.7127801810
  H        15.2585538630        4.6323139921        5.9194166479
  H        16.4489571366        5.1285243439        4.6620860639
  C        16.6714315418        6.1535126051        6.4968606252
  H         6.2695901113        4.9513654151        2.6564728503
  H         6.2289709705        5.2629633779        0.8746922512
  C         5.1060584462        6.7565410280        2.0680628735
  S        11.7900207452       -2.0633519892        1.0690974175
  N        12.1997330765       -1.6361058007       -0.3942271532
  C        12.4335425134        0.4630883188       -1.7500452636
  H        12.2776428242        2.5310376079       -2.5259153881
  C         5.9004688241        7.0864472158       19.8411960230
  N         6.0556021345        8.4021595616       19.8356830453
  O         6.5446175685       10.2001462658       18.5362630753
  H        17.1855488903        6.9614663791        6.0508747041
  H        16.0164973413        6.6338097524        7.2633281888
  C        17.5209632406        5.0153695265        7.0720678125
  H         4.2520507400        6.2238993495        2.4178222390
  H         5.2706773935        7.5095629328        2.8503675754
  C         4.7522810616        7.5727466182        0.8435905922
  C        12.6445541261       -0.2679906175       -2.9538725820
  S         5.8357375069        6.2912433134       21.3875800679
  C         5.9297422876        9.3123820363       21.0076407925
  H        16.9648181678        4.4442556480        7.8251214601
  H        17.9019321803        4.4881372174        6.2447298320
  C        18.7433041055        5.5871265808        7.7889948340
  H         4.5279838278        6.9203133127       -0.0246488395
  H         5.6607907706        8.0999877434        0.5735604581
  C         3.6664172418        8.6654444415        1.0026414204
  H        12.3125123262       -1.2578627190       -2.9164253963
  C        13.1433703962        0.1151773608       -4.1992637742
  H         5.2010054056        8.9350321861       21.6591168704
  H         5.5189657146       10.3141654134       20.6904407866
  C         7.2984373330        9.6040598854       21.7241811558
  H        19.0599274307        4.9821484791        8.5718380975
  H        18.4255107529        6.5378348713        8.2051597214
  C        19.8717334397        5.8308129073        6.8212168309
  H         3.6365635618        9.2638756447        0.0745651756
  H         2.6384716595        8.1887317983        1.1390777976
  C         3.9447006599        9.7661497120        2.0613404791
  S        13.8928867735        1.6206720760       -4.5732701124
  C        13.3452495522       -0.9429301822       -5.2449090014
  H         7.5619981710       10.6348141552       21.7957575733
  H         8.0623659444        9.1079038612       21.0830995606
  H         7.5652288103        9.1182141318       22.6961881210
  H        19.6138442107        6.2984933659        5.8632776265
  H        20.5832014946        6.6236949868        7.2599705847
  H        20.4575013353        4.8770405841        6.6587005709
  H         4.5684301501       10.5565451981        1.7416192213
  H         2.9940726371       10.2602498429        2.3808988025
  H         4.3104788211        9.3201845818        2.9772742485
  C        14.2900687874        0.9644017823       -6.1245251216
  N        14.0058351322       -0.3838564239       -6.2926032143
  O        12.9633102520       -2.1009047521       -5.1366493725
  S        15.0914272387        1.8648045081       -7.5178518713
  C        14.1818864033       -1.1849440435       -7.5430093864
  H        14.4236274277       -2.1984450917       -7.4632190107
  H        15.1274735869       -0.9098561810       -8.0204743236
  C        12.9029371674       -1.0364357092       -8.3602426367
  H        12.0787189737       -0.7328880315       -7.7874686457
  H        12.7384321443       -2.0617003974       -8.8217618352
  H        12.9934012735       -0.3496668019       -9.1986359501
