352
 i =      600, time =      300.000, E =       231.7403380106
  H        11.9758582665        6.9222847234       32.4127377083
  C        11.6645586854        5.9854651782       32.4042543142
  H        12.4933684524        5.4900846286       32.1882709566
  C        10.7302880384        5.7019658123       31.3003312765
  C        11.0711028303        5.5390297152       33.7790530823
  C        11.3370291806        5.8786881083       29.8426464712
  H        10.4354325299        4.6519586472       31.2866328342
  H         9.8679496565        6.3377157025       31.3128197043
  H        11.9212445365        5.2914687164       34.4040327587
  H        10.4066604183        6.3862641295       34.1316922965
  H        10.4973233500        4.6569810043       33.4601212714
  C        10.2117628282        5.8860968424       28.7536144291
  H        11.9422425713        4.8846946622       29.6435730376
  H        11.9196866617        6.8562006156       29.7378544687
  C        10.6339996944        5.5702460096       27.3364738628
  H         9.6658555496        5.1050850411       29.0434390072
  H         9.7199378950        6.6580957683       28.8905743718
  C         9.5440681589        4.9682974121       26.4461917945
  H        11.4858511437        4.8427371790       27.3227469386
  H        10.9720028642        6.4765651878       26.7897377919
  C         8.2102256149        5.8310601461       26.2629051427
  H         9.8780889677        4.7628845735       25.5641668294
  H         9.2239312316        4.1088575166       26.9062360382
  C         7.1563021693        5.0513007406       25.5367592267
  H         7.8363491706        6.1633562906       27.2191628598
  H         8.4401176957        6.7379089114       25.7188416736
  C         6.8356843712        3.7285237934       26.2782067758
  C         7.6252807179        4.4601021495       24.2971865889
  C         5.9299274120        5.9678548135       25.4206778487
  C         7.0773014700        2.6890886541       25.4431164841
  C         6.3785627511        3.3102238863       27.5072590132
  C         7.6189496649        3.1420948411       24.2150566079
  C         8.0476872978        5.0195343301       23.0743530971
  H         6.2096235197        6.7975015395       24.7351396990
  H         5.7782683803        6.3225952869       26.4884924907
  C         4.6189779589        5.3078548847       24.8677637274
  S         6.5632888395        1.1344008274       26.1086838210
  C         6.2240418194        1.9641266996       27.5284262360
  H         6.1110501506        3.9902446257       28.1988034524
  C         8.0744168510        2.5226344845       23.0736262687
  H         7.8440660288        6.0594078605       23.0633023441
  C         8.4767002435        4.3755783958       21.9616019848
  H         4.8098850507        4.9654165050       23.9393312682
  H         4.4535625063        4.2395462734       25.4429717684
  C         3.3761262530        6.1450639023       24.9250119037
  C         5.8496718479        1.2462411288       28.8247268967
  C         8.5626719179        3.0916935594       21.8640707409
  H         8.1679189406        1.4878836876       23.1101298073
  C         8.9755071977        4.8604812102       20.7445072715
  H         2.6617681008        5.7526230511       24.0819141022
  H         3.5111424376        7.2149828987       24.5050176827
  C         2.8244497695        6.0102612555       26.3692860825
  C         5.8785760810       -0.1079092805       29.1443179071
  C         5.3103767191        2.0788377181       29.9514506728
  C         9.0350735550        2.5078770173       20.5978494571
  C         9.3807174119        3.8269329185       19.9667351880
  S         9.3082914689        6.3356475538       20.0229522690
  H         2.1662325662        6.8782040247       26.6139413309
  H         3.7675519360        5.9419730916       26.9767135355
  C         1.9968446250        4.7515414165       26.6718351531
  N         6.3547707044       -0.9494383380       28.1848537065
  C         5.5764555412       -0.6356347848       30.3300999961
  C         4.9775680438        1.4915169107       31.1837608009
  H         5.1169178588        3.0837491152       29.8172596119
  C         8.0065698122        1.7084971013       19.8524628251
  C        10.3802967503        1.6459778237       20.7476413240
  C         9.8264982974        4.1886231069       18.7474465000
  C         9.7502602088        5.5047428072       18.6244680724
  H         1.3889219477        4.7248070925       25.8275557006
  H         2.5577145082        3.8843182263       26.7818706347
  C         1.1106180232        4.9155973434       27.9045692551
  S         6.3309088826       -2.4238955269       28.8761624089
  N         5.7560899262       -2.0143228661       30.3027874363
  C         5.1647313448       -0.0112119859       31.4239315863
  H         4.5839841333        2.2589006007       31.8971572204
  H         7.7163597816        0.8244260536       20.3658573589
  H         8.4613974011        1.3298728110       18.9994639530
  C         6.7511744460        2.5576836752       19.4025018765
  H        10.5393602433        1.3352709684       19.7871007381
  H         9.9951992048        0.8473662085       21.3669093465
  C        11.5683794467        2.4113649293       21.2928002993
  H        10.1774564326        3.5237333272       17.9535960674
  C         9.9752719179        6.4093681711       17.3561237090
  H         0.9835812400        3.9007750119       28.3460557549
  H         0.2492421241        5.4729327665       27.6557084861
  C         1.7690234137        5.7060245098       29.1341863768
  C         4.9696790095       -0.6913759337       32.7011551521
  H         7.1062417691        3.1382733870       18.4821376323
  H         6.3615715935        3.1177396666       20.3467514715
  C         5.5648032362        1.6831133643       18.8594484671
  H        11.1474159577        2.8685694355       22.1262366737
  H        11.8210083597        3.2355144594       20.5947498374
  C        12.8029742466        1.5706127791       21.5857352516
  C         9.9793613317        7.8107625422       17.1649502878
  C        10.2300261006        5.5835579014       16.1270454240
  H         2.7366888972        5.6441436969       28.9823127907
  H         1.4701284125        6.6897460315       29.0157209407
  C         1.3397625512        5.1368986478       30.4214061971
  H         5.1467454929       -1.8392610026       32.5514778738
  C         4.5473683040       -0.2365604905       33.9489139617
  H         5.0822257174        1.3016782916       19.6860634954
  H         6.0425557308        0.8189260429       18.3568489944
  C         4.7113529018        2.5240935123       18.0603788648
  H        12.4738088462        0.9381598088       22.4031303502
  H        13.1709582420        0.9257451340       20.7791415137
  C        14.0850135438        2.3468585092       22.1667161464
  N         9.8105251967        8.6795827036       18.2600656925
  C        10.3372956537        8.3845820054       15.9826745332
  C        10.4803498299        6.2679939052       14.8457427434
  H        10.1461672993        4.5146082833       16.1508401059
  H         1.9770170618        4.3676114092       30.8292072227
  H         1.0974277866        5.8353850578       31.2273816890
  H         0.3851819151        4.6322202299       30.2327842842
  S         4.2180868702        1.3718040631       34.4486033683
  C         4.3297132000       -1.3147341886       35.0305356538
  H         4.6457068103        3.5562140526       18.3194677819
  H         5.1020689242        2.6657417880       17.0444309619
  C         3.1936922733        2.1205016244       17.9177652807
  H        13.7089121088        2.7108193103       22.9682797182
  H        14.3345989148        3.1127723797       21.5445469713
  C        15.0537096843        1.4225088088       22.7315152009
  S        10.2330058532       10.1563896973       17.6583818651
  N        10.3861338681        9.7815985556       16.0806150081
  C        10.5876488078        7.7266396571       14.8457688981
  H        10.6124112962        5.5049929115       13.9909054957
  C         3.9515777068        0.6491808450       36.0440608817
  N         4.0594951643       -0.6963581950       36.0718811997
  O         4.5384975960       -2.4603306165       34.8071405272
  H         2.7052536314        2.7694894027       17.0560911934
  H         2.5605589383        2.1287472353       18.8466896739
  C         2.9819085884        0.5966965284       17.3515338940
  H        14.7214156485        0.7249609493       23.5172100288
  H        15.4169957427        0.8413726411       21.8427330433
  C        16.2209347747        2.3895080141       23.1001599639
  C        10.9203776509        8.3879790851       13.5304573034
  S         3.7407042265        1.5685641958       37.5080626959
  C         3.7933174367       -1.2806479676       37.3365533605
  H         2.1562281658        0.7102104416       16.6450970704
  H         3.8059093701        0.3193085973       16.7440984810
  C         2.5344382698       -0.3560618425       18.3292341777
  H        15.9225989564        2.6820984117       24.1785262705
  H        16.2668934606        3.1475814272       22.2182588878
  C        17.6101174686        1.7420484053       23.1857737236
  H        10.8216066039        9.4909715155       13.5947596914
  C        11.3841118101        7.9930306125       12.3078045312
  H         2.9980289858       -0.7601585070       37.8847631376
  H         3.5989887861       -2.2949745517       37.3134486861
  C         5.1170198433       -1.3209248073       38.1581258722
  H         1.5975292095       -0.2062709897       18.8718671093
  H         3.1494485847       -0.7308418265       19.0595555349
  C         2.4644225835       -1.7022855991       17.4941970075
  H        18.0818451696        2.1642093924       23.9790894168
  H        17.3207274685        0.7350710252       23.3400231125
  C        18.4336092442        1.8378581475       21.9275338659
  S        11.7308080085        6.3632008431       11.8164623014
  C        11.5281677812        8.9939676143       11.2316343818
  H         4.7939230110       -1.5592834053       39.2905065256
  H         5.7273928174       -2.2224311336       37.8995850660
  H         5.6694612491       -0.3863128904       37.9649539167
  H         2.0284249424       -2.5424008404       18.0861082762
  H         3.4907895358       -2.0143644221       17.2838559335
  H         1.8998227036       -1.5048572546       16.6182117738
  H        19.0543329933        0.9881034319       21.7781987058
  H        19.1673899650        2.6486385884       21.9722717582
  H        18.0091090528        1.9645798586       20.8769439648
  C        12.0935475867        7.0029464027       10.1701514717
  N        11.9856705389        8.3806830329       10.1221540439
  O        11.4863098373       10.1734946836       11.4113428240
  S        12.7243618277        6.2246020356        8.8204634195
  C        12.2230401886        9.1124300818        8.9420804164
  H        12.7291999147       10.1357155927        9.2555214409
  H        13.0731917488        8.6978754660        8.2814803253
  C        11.0235880417        9.4540662988        8.1584466738
  H        10.5132366796       10.2045511922        8.6198734713
  H        11.0810728610        9.8575808597        7.1753589950
  H        10.4008980466        8.6477693585        8.0331429222
  H         4.9345248942        2.5198167201       12.5335365621
  C         3.9433680295        2.9806240796       12.5409089475
  H         4.1873931215        4.0401140524       12.5532237180
  C         3.0114015294        2.5813652456       11.4782155694
  C         3.1978947627        2.6319661735       13.8639193963
  C         3.5781770809        2.8927464734       10.0024217244
  H         2.0923017019        3.1763802820       11.5594797547
  H         2.6389151389        1.5857282417       11.4445302128
  H         3.2888067609        3.4432978502       14.4685503673
  H         3.5299157643        1.7846043327       14.2436812319
  H         2.2315317793        2.5291131649       13.6748669864
  C         4.3454895525        1.6187887019        9.5413759116
  H         2.6169067739        3.1253451589        9.5643271427
  H         4.2788417440        3.7555877445       10.1462406388
  C         5.0709924067        1.7264535231        8.2837888393
  H         3.5611741207        0.7868163548        9.4307756166
  H         4.9352336876        1.3100891550       10.4714475377
  C         6.3076698508        2.6046806248        8.3464935722
  H         4.4268556352        2.0663126845        7.4017727941
  H         5.3010710291        0.6830028378        7.8110381180
  C         7.6435734159        1.9481378723        8.7601585117
  H         6.5394342614        3.1262709567        7.4041236547
  H         5.9246746941        3.6286591768        8.9270505785
  C         8.8367382997        2.8224528685        8.9155960911
  H         7.7931225387        1.2413149440        7.9865281756
  H         7.3679963482        1.4688369976        9.6506850121
  C         8.4078193186        4.0663118350        9.6956413562
  C         9.2241729951        3.5222373248        7.7442980195
  C         9.9223444892        2.0293262470        9.6269064634
  C         8.6362751161        5.1706702315        8.9373254910
  C         7.9323613337        4.3606318196       10.9902016306
  C         9.0907611133        4.8511555396        7.6738328279
  C         9.8296277190        3.0141807346        6.5477382802
  H         9.4427228473        1.7041021313       10.6394617916
  H        10.2064453394        1.1392360572        8.9233548581
  C        11.2818638944        2.8658725493       10.0033225205
  S         8.2805459273        6.6533519231        9.8413561420
  C         7.8678340377        5.7200626058       11.1354873616
  H         7.6871184445        3.7262660550       11.6833628181
  C         9.5895436954        5.5194025390        6.5407105169
  H         9.8220388699        1.9335408542        6.6488894108
  C        10.2379226490        3.6484575773        5.4305423274
  H        10.9025186586        3.7482097847       10.3408054111
  H        11.7632654005        3.1490945045        9.0696726252
  C        12.2026785815        2.1782999160       11.0337100994
  C         7.6310991977        6.4377891049       12.4883889126
  C        10.1316103746        4.9734634874        5.3836678106
  H         9.5450620782        6.6445697373        6.4581463879
  C        10.7643776353        3.2762174584        4.2489655560
  H        13.2369456193        2.6809451896       10.8581132821
  H        12.4881682178        1.2429891166       10.5976929421
  C        11.6902129214        2.0898564206       12.4510839275
  C         7.7238201884        7.8001364459       12.8480857211
  C         7.2937874940        5.5455863920       13.6594607712
  C        10.5008953672        5.6366705123        4.1341525475
  C        10.8506686257        4.3185443698        3.3928614123
  S        11.0106523184        1.7468786264        3.5829502251
  H        11.1507728980        2.9619106719       12.6744353614
  H        11.1410320918        1.2701917191       12.5754972597
  C        12.7834418623        2.0458454929       13.5821547066
  N         8.0483943642        8.7704961621       11.9106194336
  C         7.5598587457        8.2632470323       14.1409426116
  C         7.0859854167        6.0612184012       14.9961101078
  H         6.8644048809        4.5697669933       13.5214979100
  C        11.7809923336        6.5243665526        4.3681379910
  C         9.4445268325        6.3862855511        3.5059047245
  C        11.1305496321        3.9255478181        2.0986043589
  C        11.3360236627        2.5735501952        2.0868715645
  H        13.2598007915        2.9569410842       13.4964829881
  H        13.3974075898        1.2935669079       13.3702781832
  C        12.1709504555        2.0065937766       14.9538094935
  S         8.0093026740       10.1752876920       12.7291036316
  N         7.6917487186        9.6329469961       14.1791446429
  C         7.1425061836        7.5496826288       15.1650082314
  H         6.6464872796        5.3259337957       15.7382343392
  H        11.3380974945        7.5175842272        5.0217152861
  H        11.9589764000        6.7490850146        3.2592570105
  C        12.9173743593        5.8061509788        5.0186390507
  H         9.1020743857        7.2034625594        4.2641211085
  H         9.8203762695        7.2186195238        2.6912897691
  C         8.1778672792        5.6231669599        2.9968576996
  H        11.2147922923        4.5798548231        1.3673261516
  C        11.6273276908        1.7142375944        0.9092308898
  H        11.5717295383        2.9126690495       15.0911705814
  H        11.4997405889        1.1614932238       15.1019752708
  C        13.2653894086        1.8453897074       15.9271066973
  C         6.8035500712        8.2541900714       16.3901169907
  H        12.5787697589        5.5014709677        6.0382022332
  H        13.1712086667        4.9039625127        4.4338587323
  C        14.2138135695        6.5276719884        5.1905122505
  H         7.7449676670        4.9930332785        3.7512490475
  H         8.4240827355        5.0522673855        2.0687096172
  C         6.9928419584        6.4840285649        2.4696770570
  C        11.7759325729        0.2575839586        0.7187461931
  C        11.9394083066        2.4260966229       -0.4320729086
  H        14.2197204743        2.5395350943       15.6720961472
  H        13.6309752713        0.6744064850       16.0050849125
  C        12.8340538056        2.2862467506       17.3993119210
  H         6.7950734240        9.4296756262       16.3150398462
  C         6.4867969255        7.8477217672       17.7078000969
  H        14.0287054975        7.2241009303        6.0101714086
  H        14.3783736195        7.0006433434        4.2911728942
  C        15.3854807336        5.5053381639        5.5655206359
  H         6.6492440750        6.9989406450        3.3103317317
  H         7.4923232911        7.1605626713        1.7933698865
  C         5.9546879417        5.6184949288        1.8628022902
  N        11.5879863809       -0.5523734763        1.8254842203
  C        12.1888195295       -0.3207911880       -0.4289366091
  C        12.3227340745        1.7704177192       -1.6536766328
  H        11.8608824918        3.4403694360       -0.5024910496
  H        13.5341657184        1.8627743820       18.2059527958
  H        11.7955250636        1.8419671961       17.5613696836
  H        12.7268009568        3.4230425748       17.2419930676
  S         6.2270991305        6.2707951552       18.2092475821
  C         6.4356790077        8.9023922000       18.8121917797
  H        15.0575709635        4.9002059597        6.2669559078
  H        15.5577311402        4.8994216575        4.7743692468
  C        16.5797441124        6.2307316645        6.1809022543
  H         5.9442864401        4.5414981915        2.1450646406
  H         6.1291247248        5.4826782755        0.7907397161
  C         4.5637158673        6.2683501840        1.9542019380
  S        11.8124138599       -2.0789908587        1.2421058482
  N        12.3112464737       -1.7265123645       -0.2309458415
  C        12.4582894033        0.2231089288       -1.6167077424
  H        12.5449950870        2.3766346876       -2.4609593791
  C         6.0450850095        6.9331462826       19.8551549954
  N         6.2703451580        8.3225991023       19.9336649122
  O         6.5236385899       10.0665329050       18.5818349578
  H        17.0078772845        6.7944479193        5.2927760482
  H        16.2192924879        6.9776456587        6.9294928088
  C        17.5042821008        5.2673083711        6.8923228810
  H         4.1101095194        5.5241097111        1.3297321334
  H         4.1218194129        6.2421421498        2.9369799972
  C         4.4354899423        7.5967287636        1.2213588666
  C        12.8301899003       -0.6122792532       -2.7671091877
  S         5.5384141317        6.1989543132       21.2472152473
  C         6.4382607131        9.0408775071       21.1729692010
  H        16.9688059019        4.9533220922        7.8888681097
  H        17.6851144094        4.3836116776        6.1212197449
  C        18.8653206492        5.7620891280        7.2570132741
  H         3.8053455014        7.5996559649        0.2946406170
  H         5.3882842077        7.9477729512        0.6806918339
  C         3.9496432188        8.6709647849        2.1539203903
  H        13.0171521411       -1.7045991766       -2.5073228444
  C        13.2237221875       -0.4026300384       -4.0345754841
  H         5.6336186238        8.6953516776       21.9120197907
  H         6.2232587591       10.1228193503       20.9288733936
  C         7.7746484888        9.0696544787       21.8962600788
  H        19.3613781431        5.1663447350        8.0692718234
  H        18.7142779431        6.7065493004        7.6570465733
  C        19.7009484030        5.7542406549        5.9979415059
  H         2.8994357746        8.4385086296        2.6837889827
  H         4.9195797378        8.9248016976        2.8746797342
  C         3.6699317913       10.0586600752        1.4599150235
  S        13.6988591903        1.1711578406       -4.7207061379
  C        13.3085963646       -1.5507091422       -4.9964295780
  H         8.6883945693        9.0801707579       21.1738708889
  H         7.9886887597        8.2106402778       22.5116079286
  H         8.0607618779       10.0435705667       22.4678216015
  H        20.6794552945        6.2737566727        6.1742406501
  H        19.7264627316        4.8061253125        5.5537896729
  H        19.3109111389        6.3815617602        5.2330102255
  H         3.3607061108       10.7438933950        2.2688353320
  H         4.5149585262       10.3859382064        0.8782416208
  H         2.7959289373        9.8408019735        0.8558283904
  C        13.9479786530        0.2676854433       -6.2374094560
  N        13.7329089822       -1.0700028281       -6.1792224860
  O        12.9227498486       -2.6606613203       -4.6894493246
  S        14.4519058192        0.9490501166       -7.7624023916
  C        13.6738728648       -1.9512258238       -7.2935670467
  H        14.0479121574       -2.9447071695       -7.0093860707
  H        14.3551553710       -1.4977100454       -7.9713101258
  C        12.2689753620       -1.9042883449       -7.8653635709
  H        11.6078461093       -2.3317540108       -7.0052869373
  H        12.2185679665       -2.5000634887       -8.8645670780
  H        11.6354974850       -1.0012538298       -8.0777052239
