352
 i =    72700, time =    36350.000, E =        98.6178556417
  H        12.0557426427        7.7134346372       32.2340011526
  C        11.7730620267        6.6463513023       32.2467584938
  H        12.6826646037        6.0995566568       31.9449964508
  C        10.6569218315        6.2992129559       31.2353826674
  C        11.3874718488        5.9740939668       33.5893994056
  C        10.7560873258        7.0589733406       29.8516358064
  H        10.6240079084        5.2728112710       30.9433555391
  H         9.6503453242        6.5299555341       31.6997135663
  H        11.0644136574        4.9378410817       33.4254468749
  H        12.2930339016        5.9395805292       34.2137062033
  H        10.5944749299        6.3451483595       34.2439479474
  C         9.9097722655        6.3653914878       28.7999100470
  H        11.7726112955        7.1240048534       29.5277204960
  H        10.5062315152        8.1015225918       29.8407491444
  C        10.6117617622        6.3172070727       27.5083410236
  H         9.8068377969        5.3248003381       29.1334036837
  H         8.9084834358        6.7669309986       28.7664693187
  C         9.8515121684        5.5781040381       26.3799799633
  H        11.6967751858        6.1363423274       27.5714904047
  H        10.5878995304        7.3833063658       27.0797179137
  C         8.6212508794        6.3455640191       25.9682835252
  H        10.5116918094        5.1941959301       25.5241210787
  H         9.5642484335        4.6223554164       26.8553904874
  C         7.4892169185        5.6008748180       25.2098471412
  H         8.2002032226        6.9056494714       26.8056314304
  H         9.0862598576        7.0846215529       25.3395279782
  C         7.1532531854        4.2867681144       25.9974745352
  C         7.9716022825        4.7699591428       23.9925824165
  C         6.1557687533        6.4555245599       24.9809064149
  C         7.4790471446        3.1391486730       25.2448955227
  C         6.6558319036        3.9712288550       27.2453555610
  C         7.9305836668        3.3912193300       23.9508065809
  C         8.4721194037        5.2577150268       22.7718426799
  H         6.4055378544        7.3269554122       24.3908635242
  H         5.8706115369        6.7340488518       25.9941164777
  C         4.9007678308        5.6669079733       24.4433868206
  S         7.1663751094        1.6631241529       26.0451373058
  C         6.5822727313        2.5944115609       27.4087684234
  H         6.4066503363        4.7773184604       27.9570827899
  C         8.2976917466        2.7077506985       22.8790570581
  H         8.5012360728        6.3290592240       22.7774509674
  C         8.7773282426        4.5653673725       21.6507845759
  H         4.9937076517        5.2144327482       23.4244828702
  H         4.8172902467        4.8685242629       25.0956133755
  C         3.5009631133        6.3933212477       24.4785174604
  C         6.0550017757        1.9410832551       28.5974645239
  C         8.7319825122        3.2239091488       21.6308798644
  H         8.2959438920        1.6581003405       22.8196876484
  C         9.1102525693        4.8330289547       20.3435200956
  H         2.6882507153        5.8581453126       23.9804306171
  H         3.5464865222        7.3479173795       23.9778496738
  C         2.8540917389        6.5338134862       25.9186054043
  C         6.0133255126        0.5359855271       28.8030563946
  C         5.7576849644        2.7856443098       29.8043334787
  C         9.0090698524        2.4623980172       20.4075356569
  C         9.3206949358        3.6869986207       19.5425332680
  S         9.3024041047        6.2559627062       19.4678675466
  H         2.1985315765        7.3949514461       25.9091015250
  H         3.6591334387        6.7693773253       26.5944540416
  C         2.1064659604        5.3070463531       26.5286764467
  N         6.3322498794       -0.4849323676       27.8621441016
  C         5.6401632082       -0.0771116355       30.0059113131
  C         5.5569329906        2.1622702785       30.9808363720
  H         5.7663012976        3.8480316066       29.7648090185
  C         7.8404178571        1.7127370613       19.9517164937
  C        10.3733355799        1.7142175376       20.3572882350
  C         9.6470540962        4.0710821735       18.2171992424
  C         9.6699201607        5.4177031302       18.0421206144
  H         1.3312049908        5.0758642911       25.7574917730
  H         2.8851552121        4.5326513748       26.4698114216
  C         1.3924260216        5.4469899983       27.8741036045
  S         6.2442642227       -1.9622643583       28.4981431242
  N         5.7214584431       -1.4552066152       29.9611508208
  C         5.4899587776        0.7238755982       31.1979926441
  H         5.4199974136        2.7397284320       31.9104707659
  H         7.5874159715        0.9192663399       20.7217042307
  H         8.1615799656        1.1135720828       19.0946066243
  C         6.5831726346        2.5254037019       19.6225025431
  H        10.5997599969        1.3579087213       19.3719799416
  H        10.1832852219        0.7712521856       20.9107067531
  C        11.6473579031        2.5132112067       20.7959034849
  H         9.6922688283        3.3393261037       17.4621720836
  C         9.9145133748        6.1388265752       16.7272169995
  H         0.8834341544        4.4721972785       27.9761280449
  H         0.5818676880        6.1552536947       27.7233406367
  C         2.3815977810        5.7239003627       29.0889973705
  C         5.2556283160        0.0096549540       32.4145046771
  H         6.7589778873        3.1771172405       18.7501425838
  H         6.3835993240        3.0986313497       20.4941422354
  C         5.4255059214        1.6622841010       19.1599850000
  H        11.4532442552        3.1420939555       21.6710005839
  H        11.9066145474        3.1436018816       19.9139371938
  C        12.7805531873        1.5075434210       21.1706064003
  C        10.0335022455        7.5642596696       16.6848914472
  C        10.2738262402        5.4838416010       15.4432864482
  H         3.1149527571        4.9226619784       29.1923941555
  H         2.9498829211        6.6366064774       28.9045554680
  C         1.5958887798        5.7252136610       30.3788357963
  H         5.5120985844       -1.0416281378       32.3328505865
  C         4.9592414171        0.3218454395       33.6984110544
  H         4.9228221672        1.1601594322       19.9524472645
  H         5.9735017784        0.8756595666       18.6350119017
  C         4.4656047958        2.4317714869       18.3304926298
  H        12.4622479637        0.9415223898       22.0625431045
  H        12.9616180854        0.8130007843       20.4046775234
  C        14.1359677203        2.2849514115       21.1721182664
  N         9.7321568551        8.4202405180       17.7358005242
  C        10.2909699783        8.2887758967       15.5318399477
  C        10.4967030022        6.2167648029       14.2818953647
  H        10.0480286042        4.4435270203       15.3284892340
  H         1.7361847911        6.6529526706       30.9202214257
  H         0.6049700395        5.4860204072       30.1466298607
  H         1.9612020571        4.8774913832       31.0641487278
  S         4.5386365379        1.9236185025       34.1113253081
  C         4.9572428798       -0.6357195548       34.8369004456
  H         4.2999066463        3.3589660905       18.8415124967
  H         4.8386851709        2.7690283695       17.3282954378
  C         3.1241271856        1.7084647285       18.3678368572
  H        13.8576187841        3.2890478146       20.8990074849
  H        14.9039810355        1.8740750296       20.5102979059
  C        14.7098929186        2.4992661847       22.5555048811
  S         9.8815241681        9.9520875208       17.3126282957
  N        10.2681362090        9.6791918893       15.7407645176
  C        10.6059609309        7.7068086675       14.2822492982
  H        10.6457529419        5.7170081724       13.3552571079
  C         4.2991698448        1.2901546293       35.7502439405
  N         4.4624411167       -0.0454411834       35.9260990930
  O         5.2758739894       -1.8821144021       34.8313249711
  H         2.3803696206        2.3654494055       17.9854967963
  H         2.7464574064        1.5716832869       19.3690237586
  C         3.1396197772        0.4667258209       17.5014452103
  H        13.9913292763        2.6425207715       23.4082067505
  H        15.1470573251        1.5379820865       22.7904133059
  C        15.7534313623        3.6408387592       22.5903556876
  C        10.7549088657        8.5202540895       13.1213050134
  S         3.8806190125        2.2041421406       37.2024724974
  C         4.4524220876       -0.7163565564       37.2844081093
  H         3.0575309919        0.8861491285       16.4921491712
  H         4.1331231841        0.0213447212       17.6341843060
  C         1.9776504542       -0.4737487977       17.8966227055
  H        15.9717014941        3.8136666589       23.6748849209
  H        15.3556687087        4.5974604018       22.2073127008
  C        17.1080891344        3.3548974382       21.9461178548
  H        10.6669598333        9.5447937526       13.2787112043
  C        11.3858363583        8.2558897419       11.9170265299
  H         3.7843440060       -0.2508149108       38.0937163136
  H         4.0992599872       -1.7356222013       37.1883718891
  C         5.8700680183       -0.7258540214       37.7983838817
  H         1.1441514336       -0.3331013604       17.2530554622
  H         1.6598343248       -0.3880534051       18.8834813807
  C         2.4884843913       -1.9147269513       17.7515571591
  H        16.9806238315        2.8321012318       21.0332227033
  H        17.6784898516        4.2031831023       21.7426612700
  C        18.0583853059        2.5155916313       22.8265341791
  S        12.0863790599        6.7110627223       11.4623846722
  C        11.5341810943        9.3666229943       10.9959564766
  H         6.6731315453       -0.7890340617       37.0270039875
  H         5.9013245801        0.1950282228       38.4429853413
  H         6.0531134271       -1.5916437034       38.5339559229
  H         3.0629859070       -2.1558000552       16.8531184832
  H         1.7297694164       -2.7204447576       17.7897000053
  H         3.2104406141       -2.1052047004       18.5077859482
  H        19.0742628995        2.4423015456       22.5335216386
  H        17.6013422739        1.5535288018       22.6763699829
  H        17.9464993440        2.7439739955       23.8275115618
  C        12.3814251494        7.5044570383        9.9003968275
  N        12.2483697905        8.8928638912        9.9568270251
  O        11.1492106576       10.5419702642       11.1962807258
  S        13.4383502022        6.7498201832        8.7249448083
  C        12.5812805626        9.7793181208        8.8897919400
  H        12.9753697418       10.7179863863        9.2728544210
  H        13.4728776397        9.3529100568        8.3568794277
  C        11.4076997183       10.0442834405        7.9034704105
  H        11.9193817694        9.9148891980        6.9816426708
  H        10.6257315682        9.3218615067        8.1314716365
  H        10.9666797503       11.0601269067        7.8511214708
  H         2.1208236766        1.8045679602       12.6465168293
  C         2.9799024901        2.4376560086       12.8071797293
  H         3.7580023073        1.6406593439       12.6449484895
  C         3.0297053359        3.4165034906       11.7033626003
  C         2.9361258883        3.0345759382       14.1990569534
  C         4.3646165363        3.4494880752       10.9321307499
  H         2.5377401109        4.2704658674       12.0338916416
  H         2.3923621222        3.0021700753       10.9065327873
  H         2.6697138596        2.2279440599       14.8709531986
  H         2.2740662629        3.9084948128       14.1869232761
  H         3.9052964337        3.3636276129       14.6276200278
  C         4.9164294087        2.1251109852       10.2721356233
  H         4.3353972789        4.1861322737       10.1259151973
  H         5.2190901245        3.6916244611       11.5804374682
  C         5.2092776307        2.2105876712        8.8123264636
  H         4.2768697708        1.2378577910       10.4622321606
  H         5.8188023212        1.9293719471       10.8452811725
  C         6.5771894075        2.8507176701        8.5529451315
  H         4.4306411616        2.7765642198        8.3589207243
  H         5.2215199326        1.1985801655        8.4695483933
  C         7.7829435781        2.0375995071        8.9092749968
  H         6.5587715774        3.1023252196        7.5622314840
  H         6.4846761646        3.7964366095        9.0137353525
  C         9.0386161188        2.9688712331        8.9957768612
  H         7.8752173664        1.4159717442        8.0600768592
  H         7.7412399117        1.3260481555        9.7270311622
  C         8.8143660345        4.2888461695        9.7556854260
  C         9.5504031069        3.6776462359        7.7722975707
  C        10.1356096859        2.2178115683        9.7045980126
  C         9.1668141107        5.4180556434        9.0198633951
  C         8.3216665958        4.6760364514       11.0158270619
  C         9.7151756362        5.0639951000        7.8216645154
  C        10.0804841486        3.1915590649        6.5440166297
  H         9.7818990076        2.0164713072       10.7087748684
  H        10.3084317942        1.2148674400        9.3238839331
  C        11.5360599910        2.9365329889        9.9285517855
  S         8.8673778767        6.8821245587        9.8394943288
  C         8.2528452071        6.0427490556       11.2234846684
  H         8.0842677308        3.8636397054       11.6800628450
  C        10.2539602454        5.7410958970        6.7346541247
  H        10.1810805384        2.1298720236        6.4030364434
  C        10.5579832871        3.8706004188        5.4691734996
  H        11.3732638837        3.9433306083       10.3547318079
  H        12.0731544642        3.1464615247        9.0106716140
  C        12.4598700727        2.2169197934       10.9382730837
  C         7.7446233174        6.7004691566       12.4775794971
  C        10.6527110962        5.1994675087        5.5014950725
  H        10.2601034649        6.7968575397        6.7717689863
  C        11.0061517392        3.5272485096        4.2241792580
  H        13.4124594155        2.7077076731       10.9874084536
  H        12.6423825577        1.2303850427       10.4926528924
  C        11.9394080777        2.0550076855       12.3644502887
  C         7.6522585096        8.1113422924       12.6995411461
  C         7.1893179354        5.8327606627       13.5063604117
  C        11.0554863407        5.9578505503        4.2178647427
  C        11.1944224900        4.6480213324        3.4560452849
  S        11.2321522456        2.0106643127        3.5521741089
  H        11.5736776512        3.0165995822       12.6627700263
  H        11.0547009515        1.3728914823       12.4535432384
  C        13.0286663085        1.6584006799       13.4399987673
  N         7.9121073153        9.2028854481       11.7850138177
  C         7.2531901081        8.6752914973       13.9173312881
  C         6.8890573612        6.3702508373       14.7643097312
  H         7.2664824986        4.7225434122       13.5149290129
  C        12.3154597161        6.7552446227        4.3491404479
  C         9.8896776544        6.7560896914        3.6838609700
  C        11.5405957725        4.1901725881        2.1608267092
  C        11.5624480405        2.7984196225        2.1040969799
  H        13.6560416970        2.4437892547       13.7596343328
  H        13.7833201009        1.1366691386       12.8190025832
  C        12.4767551350        0.8685438311       14.6664152049
  S         7.9962435374       10.6271403847       12.5879767496
  N         7.4100273799       10.0926005684       13.9633609259
  C         6.8515680604        7.8495589762       14.9904130717
  H         6.7569372161        5.6345657937       15.5877285696
  H        12.1208265713        7.4609972355        5.2096433661
  H        12.5591076433        7.2666103631        3.4147217752
  C        13.5271407784        5.9151844626        4.7709170502
  H         9.6234081317        7.3902803926        4.5564068820
  H        10.2001847616        7.3541014983        2.8335589099
  C         8.6325045682        5.9813312259        3.2263717100
  H        11.7536309799        4.9142836269        1.3936145831
  C        11.8535926704        2.0988108628        0.8317755913
  H        11.7451181072        0.1513269157       14.2396351832
  H        13.2866647947        0.3369284639       15.1744333002
  C        11.9362923693        1.8101123404       15.7504956610
  C         6.6912168217        8.5249008253       16.2310073065
  H        13.2017364563        5.4520627460        5.7315256297
  H        13.7167779377        5.1605631307        4.0480055247
  C        14.7191407411        6.7023512404        5.1367748506
  H         8.1585836092        5.4800098281        4.0574679550
  H         8.7976012169        5.1963770934        2.5275113213
  C         7.5945998572        6.9178670308        2.6846279536
  C        12.1192433267        0.6970163638        0.6394633295
  C        12.1241958563        2.8697728613       -0.3893082613
  H        11.3748495457        1.2416496740       16.4606722182
  H        11.2504327089        2.6016337704       15.5159901458
  C        13.0080989795        2.5317610393       16.4693075968
  H         6.7802171574        9.5859259189       16.2184703901
  C         6.4604097612        8.0866739552       17.4994113647
  H        14.3840270449        7.2919535681        5.9630157990
  H        15.0828385152        7.3511359287        4.2693116026
  C        15.9204920015        5.6782907241        5.4375154349
  H         7.2897146288        7.5926577728        3.4046853450
  H         8.0176234446        7.4334661832        1.8490759612
  C         6.3345018694        6.0856936230        2.2428671018
  N        12.1275688926       -0.2647503244        1.6212261547
  C        12.3531368627        0.1047162975       -0.5994480264
  C        12.5111472630        2.2753001456       -1.5841641865
  H        11.9536819024        3.9579067659       -0.4068214995
  H        13.7886094959        2.8240197549       15.8601982879
  H        13.3764793274        1.9244864411       17.3559070758
  H        12.4325058242        3.4369681340       16.8512435596
  S         6.1081872813        6.4432165415       17.9571934067
  C         6.4885391846        9.0655754668       18.6011317700
  H        15.5309683636        4.6713876906        5.7276834761
  H        16.3841917656        5.4884128485        4.5047700333
  C        16.9393067040        6.2273038097        6.4304596951
  H         5.7726405337        5.6613005217        3.1086308556
  H         6.7510013265        5.1613695092        1.7804745789
  C         5.5145521377        6.9091301426        1.3189012932
  S        12.1323235615       -1.7835079311        0.9663731899
  N        12.4737893033       -1.2760960352       -0.5512758425
  C        12.6491874056        0.8496637086       -1.7346521219
  H        12.5937780593        2.9399937770       -2.4764705599
  C         5.8476051448        7.1094477518       19.5730173167
  N         6.0628795284        8.4058068360       19.6882101396
  O         6.6916372516       10.3157493022       18.4973295359
  H        17.4661925942        7.0602797763        5.9429187667
  H        16.3014871021        6.5954186316        7.2341536971
  C        17.9876626133        5.2674432375        7.0071279217
  H         6.1230411838        7.4589236276        0.5969256504
  H         4.8514993988        6.2346625587        0.7564222665
  C         4.4643326798        7.8883692651        2.0149611565
  C        12.9440905963        0.1735274612       -2.9735989071
  S         5.4535269176        6.0998621670       20.9894145125
  C         5.9307382206        9.2001150462       20.9418912589
  H        17.5935044877        4.7357321925        7.8626022434
  H        18.2350169747        4.4603723251        6.3267834360
  C        19.1685870581        6.1061110430        7.4507790599
  H         4.8575878903        8.3068929280        2.9416600758
  H         3.6509396579        7.2802223007        2.3982217669
  C         3.9430144592        9.0779422456        1.1321978325
  H        12.7589444971       -0.8950308765       -2.9100792758
  C        13.5485759128        0.6188188265       -4.0416451763
  H         5.0322457739        8.7151753020       21.4707290717
  H         5.6010633578       10.2094992340       20.8322326490
  C         7.1224021496        9.3649073303       21.8644724485
  H        19.5654240400        5.5880140946        8.3556106134
  H        18.7469457198        7.0849636592        7.7179826411
  C        20.1913911577        6.2437895448        6.3964376364
  H         3.4338095072        8.6915102379        0.2234947621
  H         3.0723815310        9.4108879904        1.6201973091
  C         5.0331540686       10.1979041029        0.8653360951
  S        14.0867027551        2.1684761978       -4.3951001482
  C        13.8779619575       -0.3797602321       -5.1291302376
  H         6.8225872993        9.3623976533       22.8983754539
  H         7.6178258270       10.3223088258       21.6619796017
  H         7.8386434009        8.5603026277       21.7131750144
  H        20.3859712242        5.2974862463        5.8782046984
  H        19.9638444268        7.0714710498        5.7628106038
  H        21.1224546180        6.4127313492        6.9016456222
  H         5.3508803209       10.7322032945        1.7260308402
  H         5.9659382032        9.8133504407        0.4452174830
  H         4.7027946186       10.9163275865        0.1631538607
  C        14.5389111078        1.5952561315       -5.9439819408
  N        14.4348853295        0.2196738901       -6.1886350294
  O        13.5237077465       -1.5989639681       -5.1061023742
  S        15.3505425770        2.6376645362       -7.2903854342
  C        14.5511099337       -0.3750163127       -7.4933317243
  H        14.8961061929       -1.4223421959       -7.3858923046
  H        15.2571462150        0.0969153262       -8.1346090435
  C        13.2439458114       -0.2755153778       -8.2654551964
  H        12.6529323671        0.5938131605       -7.9886663251
  H        12.5220462403       -1.1505683124       -7.8277697494
  H        13.2764821992       -0.3305391138       -9.3374060650
