352
 i =    18400, time =     9200.000, E =       103.0865333535
  H         9.8038668817        4.5578620402       31.5103521708
  C        10.4186396020        5.4591396357       31.7373953613
  H         9.7946050768        6.2984791501       31.4992517043
  C        11.6262471889        5.4582013379       30.8251636286
  C        10.8860276518        5.4479464459       33.1866941927
  C        11.4217856604        4.8138229997       29.4726721633
  H        12.0144964952        6.5065976616       30.7395829357
  H        12.4179640532        4.9526314143       31.3718566910
  H        11.8371313732        6.0933628876       33.2893820885
  H        10.1474691911        5.9268995631       33.8317962158
  H        11.0988428418        4.4965612310       33.6232348924
  C        10.5441371475        5.5618972672       28.5624957947
  H        10.8286113612        3.8904740008       29.5560673218
  H        12.3539807690        4.3804684193       29.0921963118
  C        10.7576365548        5.3495604087       26.9912983257
  H         9.4887173917        5.4603907092       28.7685558621
  H        10.7918923012        6.6003240097       28.6240582870
  C         9.6056126113        4.6001302299       26.3093461739
  H        11.5760778827        4.7242523754       26.7669880738
  H        10.9765654877        6.2680964915       26.4825756897
  C         8.4977072691        5.6770171334       26.0458421849
  H         9.9608123813        4.2939239185       25.3995862200
  H         9.2482765222        3.8158577773       26.9333686894
  C         7.2531572955        5.0449390226       25.3628710690
  H         8.1675185422        6.1159710781       26.9366038331
  H         8.8257552849        6.5066308892       25.4279370095
  C         6.8325295886        3.7113130302       26.0053699607
  C         7.7197043710        4.2793850757       24.1315103620
  C         6.0723324822        6.0129385942       25.1268632392
  C         7.1852782064        2.5842243827       25.2706998245
  C         6.3986118465        3.3220834556       27.2877059529
  C         7.7015639326        2.9400361398       24.0528574027
  C         8.2500012726        4.9187338113       22.9878500718
  H         6.3860690145        6.7807158963       24.4729217325
  H         5.8806900635        6.4173623232       26.0938649749
  C         4.8350933916        5.2933038628       24.5392692226
  S         6.8815242984        1.0613917064       26.0385351719
  C         6.3293335381        1.9424773139       27.4515242406
  H         6.1610895656        4.1833084692       27.9905229773
  C         8.2034228355        2.3477753478       23.0023199530
  H         8.2411745034        5.9632185874       22.9191570174
  C         8.6778121164        4.2697121895       21.8737025318
  H         5.1485733932        4.7505118664       23.5919275868
  H         4.4042363575        4.5432694618       25.2373180317
  C         3.6189531827        6.2865320434       24.3554040102
  C         5.8374360800        1.3274664922       28.7553267015
  C         8.5809675271        2.9225257608       21.7845609947
  H         8.3342426738        1.2411365516       23.0452049476
  C         9.0905497376        4.6998325406       20.6197900296
  H         2.8454521309        5.8844632990       23.7254533713
  H         3.9824191886        7.1989239865       23.8578066249
  C         2.9780225124        6.7327538462       25.6919994071
  C         5.7814746472       -0.0694882765       29.0134567956
  C         5.5126025760        2.2590215150       29.8600244281
  C         8.9828853149        2.2798634737       20.5070890909
  C         9.2499530184        3.5975964533       19.7395972985
  S         9.1935845984        6.2057263653       19.8439531877
  H         2.2149728808        7.4078995990       25.3266718159
  H         3.6988682597        7.2714473524       26.2944654011
  C         2.2167072626        5.6643639677       26.5230073335
  N         5.9957837302       -1.0928124741       28.1253859669
  C         5.3437008496       -0.5203658134       30.2675189512
  C         5.0830772393        1.7616645849       31.1227372499
  H         5.4874814332        3.3272109854       29.7141073518
  C         7.7224821976        1.5342273166       20.0897721570
  C        10.2259870919        1.4311650291       20.7226188399
  C         9.4553462873        3.9821559513       18.4309030108
  C         9.5312382074        5.3525072407       18.3448031249
  H         1.2607220803        5.5329973489       26.1190859264
  H         2.7250342046        4.6959554226       26.5555281770
  C         2.0861358722        6.1451894057       27.9796220763
  S         5.7561332550       -2.4610970181       28.9012281675
  N         5.3702734193       -1.9180248309       30.3954654747
  C         5.0811422496        0.2940417675       31.3175382409
  H         4.7534006985        2.5652332709       31.7627213279
  H         7.4671099365        0.8620489034       20.8280398539
  H         7.9691373597        0.9501803203       19.1668726844
  C         6.3294558024        2.2807146790       19.9038329517
  H        10.4176133153        0.9215255131       19.7614438797
  H        10.0803444504        0.7372557095       21.4863016856
  C        11.4614997535        2.3001045061       20.9826926119
  H         9.5701598300        3.2755395270       17.6233490096
  C         9.8822919670        6.1756542326       17.1427758154
  H         1.8598548046        7.2621612705       28.0098645186
  H         3.1077963772        6.0895977082       28.3571695870
  C         0.8907305223        5.4481354078       28.6237987125
  C         4.7852308351       -0.2955626697       32.6048877232
  H         6.3951956142        3.0638420502       19.1508794390
  H         5.9384064510        2.7554336051       20.8155988496
  C         5.2219721502        1.3542388914       19.4267110679
  H        11.2865779703        3.0319058719       21.7575673268
  H        11.7253618598        2.9296620045       20.1479935731
  C        12.7214850095        1.4355201298       21.1003411192
  C         9.9625666843        7.5802453082       17.0670298939
  C        10.1748068246        5.4787334524       15.8912562692
  H        -0.0645437867        5.6285818909       28.0317372352
  H         1.2017380755        4.3950163420       28.8286631177
  C         0.6841419085        5.7883029355       30.0283324733
  H         4.7202729330       -1.3951287995       32.5625590779
  C         4.4677594812        0.1678536132       33.8620264691
  H         4.9742538211        0.7822598809       20.3256094453
  H         5.5494888833        0.5825534355       18.6910726495
  C         4.0362774682        2.1437601047       18.9408915215
  H        12.7198625683        0.8061303592       22.0070598219
  H        12.7985782078        0.7884905749       20.1718881372
  C        13.9604857802        2.2464306596       21.3038728868
  N         9.5903684709        8.4845996321       18.0576568476
  C        10.3583612085        8.2787018450       15.8979133618
  C        10.6290526731        6.1257091905       14.7297036801
  H         9.9994497032        4.3856519838       15.8423997388
  H         0.1102990816        5.0607952744       30.6003548030
  H         1.6363304314        5.9158546434       30.4510232706
  H         0.3095429932        6.7983972583       30.1610205565
  S         4.2579768438        1.8520882016       34.3511464445
  C         4.1871199734       -0.8520537051       34.8901005921
  H         3.8945541486        3.0344555390       19.5562870131
  H         4.1932315558        2.5245664606       17.9346697300
  C         2.8361427704        1.3385254238       18.8872714343
  H        13.7972177076        3.1422562882       20.7020935909
  H        14.8479801285        1.6963671363       21.0683225217
  C        13.9900830286        2.7955623295       22.7164544616
  S        10.0650177343       10.0279709775       17.7207396920
  N        10.5006117524        9.6443198125       16.2023343588
  C        10.6199665754        7.6520728553       14.6822925392
  H        10.8769881031        5.4779015489       13.9018932434
  C         3.9383334103        1.1765036871       35.9009384780
  N         3.9209063904       -0.2046043250       36.0034619873
  O         4.1919893363       -2.1107584580       34.7095062903
  H         1.9892652693        2.0074812994       18.6216112595
  H         2.6821066983        1.0632646536       19.9637056085
  C         2.7627161820        0.1992120761       17.8142539531
  H        13.4221850564        3.7077917884       22.8659387226
  H        13.5667274653        2.0806140763       23.3603386138
  C        15.3951090783        3.2267196682       23.1559702180
  C        10.8558106134        8.4286949068       13.5040841414
  S         3.4811043759        2.1051535923       37.3361528773
  C         3.9050645096       -0.8767272749       37.3003227001
  H         2.0501623017        0.5844241099       17.1013027086
  H         3.7277945622        0.0435981123       17.2447104572
  C         2.3737302061       -1.1086027867       18.4357206626
  H        15.2977150863        3.8095431392       24.0830178609
  H        15.8459051232        3.9770503066       22.3682670465
  C        16.2881698141        2.0443461255       23.3085512881
  H        10.7169061599        9.4505307192       13.6506049984
  C        11.3501971665        8.1461617394       12.2272369578
  H         3.5677207095       -0.2878140944       38.1817851515
  H         3.2314036884       -1.7556050133       37.3000789375
  C         5.3165898543       -1.2986833589       37.7503930572
  H         1.4936598593       -0.9479895072       19.1241820070
  H         3.1852685773       -1.6388190705       18.9651698633
  C         1.8744566759       -2.1812814767       17.4768867704
  H        16.6574133882        1.9485420095       24.3608499854
  H        15.6662023948        1.1364698772       23.1578824536
  C        17.5793522636        2.0987589261       22.4420138099
  S        11.8381968097        6.6631985804       11.6856902414
  C        11.2713956881        9.2529443547       11.2369616260
  H         6.0659903757       -1.2125993502       36.9748186599
  H         5.5903529976       -0.6904038996       38.6369782769
  H         5.2436920898       -2.2632989475       38.1708561040
  H         1.1161070383       -2.8118994678       17.9974816155
  H         2.7519517970       -2.8258524328       17.2237319609
  H         1.3654841659       -1.6355024827       16.6046993781
  H        18.2744335286        1.3216238819       22.7255907852
  H        18.1191214357        3.0550616052       22.4353766546
  H        17.3393401408        1.9382007289       21.4441688105
  C        11.9893549446        7.4647985161       10.0800482566
  N        11.8677723949        8.8413467685       10.1055528185
  O        10.9917657880       10.3830560569       11.5720139810
  S        12.4852462929        6.6402605039        8.6154061796
  C        12.1384125696        9.7210955957        8.9646367047
  H        12.5569096721       10.7175571008        9.1318930606
  H        12.9456167095        9.2594251148        8.4326510236
  C        10.9263887258        9.8629162375        8.0649199541
  H        11.0952312243       10.3655926099        7.0546194321
  H        10.2958969618        8.9980551375        8.1069180470
  H        10.2616234105       10.6287010732        8.5849025078
  H         4.5434187334        2.0674710765       12.5549243394
  C         3.5908387424        2.5040947434       12.5514751565
  H         3.8738360975        3.6000570081       12.6423150020
  C         2.8590232756        2.2897137072       11.2818821490
  C         2.6691819528        2.2162923766       13.7706556521
  C         3.6158643848        2.6647172180       10.0109816422
  H         1.9267693816        2.8506658977       11.3512113104
  H         2.4819656828        1.2947194882       11.3287180750
  H         2.3552245197        1.1692304113       13.9620903100
  H         1.7459673988        2.7058732315       13.6436644440
  H         3.1898355882        2.3798093063       14.7212977165
  C         4.4658393787        1.5428410392        9.3313402626
  H         2.9299950471        3.0163573488        9.2397715256
  H         4.2004345156        3.5941717391       10.2706998805
  C         5.4405259628        1.9327302631        8.1433978129
  H         3.8483237847        0.6113844141        9.0417114389
  H         5.0909643703        1.2835530427       10.1915940869
  C         6.6048311124        2.7859080330        8.6425423152
  H         4.8539520599        2.4639353179        7.4544264366
  H         5.8291494945        1.0762089272        7.6248509153
  C         7.8432117085        2.0364517285        9.2335866566
  H         6.8974536889        3.4245167491        7.8304600379
  H         6.2122797892        3.5260962638        9.3425153374
  C         9.1088445453        2.9219448990        9.4214105158
  H         8.1086286345        1.2139305406        8.5609941635
  H         7.5144935795        1.5336296478       10.1560542832
  C         8.7669229684        4.2793782025        9.9650519525
  C         9.5153498652        3.5549594210        8.0961407798
  C        10.2584940866        2.1646910359       10.1589053499
  C         8.9626223183        5.3645968766        9.1036462052
  C         8.2482923152        4.7631506397       11.2151830324
  C         9.4709386651        4.9014612911        7.9064268227
  C         9.9212096674        2.8859265546        6.9027586051
  H         9.8520808273        1.7324380998       11.0533679839
  H        10.6162962743        1.3529006865        9.5295821987
  C        11.3751594344        3.1371831374       10.3938198764
  S         8.6270489536        6.8854388668        9.7900788349
  C         8.1516616646        6.1252023547       11.3054007247
  H         8.0184559042        4.1077572393       12.0186960954
  C         9.9491728771        5.5242116356        6.7553692221
  H         9.9866488201        1.8500085747        6.9571521668
  C        10.3301107216        3.4257081800        5.7281980092
  H        10.8935121445        3.9633009358       10.9800236471
  H        11.7997965396        3.5443017174        9.4684130401
  C        12.4635959555        2.5053351252       11.3401258400
  C         7.6668281434        6.7841396591       12.5683416172
  C        10.3382096115        4.7765240777        5.6076875248
  H         9.9702322590        6.6529910919        6.6880215372
  C        10.8156520226        2.9722714407        4.4730006498
  H        13.3645827516        3.1287468396       11.3741747051
  H        12.7184692331        1.6481092407       10.7337957240
  C        12.0494483402        2.2304120273       12.7600985479
  C         7.6318950549        8.1642358721       12.8717613455
  C         7.1268877508        5.9196448130       13.6437956459
  C        10.7491539539        5.3901069879        4.3104275433
  C        11.0723240998        4.0491050724        3.6797594453
  S        11.1442802252        1.4084756564        3.7042899268
  H        11.5701148441        3.0791149905       13.2494157197
  H        11.3851841187        1.3775445778       12.8831348597
  C        13.2432445661        2.0094238462       13.6769758319
  N         8.0635514752        9.1507904222       11.9672230940
  C         7.4387215137        8.6898026952       14.1422039751
  C         6.9314894993        6.4931412307       14.9119707129
  H         6.8466314896        4.9054485192       13.4686543989
  C        11.9460790073        6.2945610659        4.4462824363
  C         9.5912903802        5.9961050733        3.4929143436
  C        11.4832139377        3.5873417850        2.3634482240
  C        11.5308052693        2.2175398689        2.2984576103
  H        13.6726613796        2.9868074063       13.8801919848
  H        14.0493541843        1.5505208745       13.0257533576
  C        12.8692993610        1.2057734344       14.8673875749
  S         8.0397356383       10.5692651908       12.7283226614
  N         7.6655671480       10.0625703431       14.2242536604
  C         7.0362460198        7.8815745488       15.2357893679
  H         6.5124950456        5.8189529294       15.6288362500
  H        11.7538995891        7.0179766691        5.2271985203
  H        12.1420394202        6.8847629166        3.5632431019
  C        13.2532722777        5.5240050307        4.6914062721
  H         9.2552201324        6.9336559352        3.8630208956
  H         9.9268598231        6.0578378836        2.4373567921
  C         8.1950382468        5.2526842950        3.6259076184
  H        11.5595557115        4.2326020380        1.5138018577
  C        11.7570146274        1.4678215118        1.0189858035
  H        12.3734886689        0.2655189260       14.7043766410
  H        13.7929586991        0.9502001646       15.2611937964
  C        12.0978703114        2.0124541700       15.9276582364
  C         6.7898822443        8.5055849721       16.5017001459
  H        13.1464748225        4.7719045317        5.5084687049
  H        13.5555094108        5.0135910930        3.7985038069
  C        14.5017011991        6.4846262864        4.9996099615
  H         7.7641951493        5.1117638570        4.5841698491
  H         8.2401653000        4.2741985299        3.2084512573
  C         7.1820060121        6.0801083778        2.8841626073
  C        11.6365957353        0.0840643165        0.7905586699
  C        12.0058351134        2.2112061695       -0.2398019851
  H        11.3365638479        1.3513579522       16.3399666274
  H        11.5825670954        2.9429455359       15.5361582460
  C        13.0844507167        2.4211777695       17.0009807534
  H         7.0416666946        9.5163330182       16.5198304371
  C         6.4584148617        8.0353961530       17.7146477620
  H        14.2926348826        7.3108798169        5.6966935800
  H        14.7559232678        6.8276836058        4.0565261537
  C        15.7394854889        5.7562863942        5.3350070841
  H         7.0147830073        6.9882205983        3.4969098019
  H         7.4168220312        6.3257890456        1.8492294660
  C         5.7995776535        5.2651326554        2.8618441876
  N        11.3709291875       -0.9463161977        1.7943895093
  C        11.9609599094       -0.5265804223       -0.3941855922
  C        12.1734184408        1.6047200200       -1.4590750371
  H        12.0814422747        3.2693919161       -0.3332482340
  H        13.8479584661        2.9721588576       16.5925594899
  H        13.5444758564        1.6323233766       17.6279859244
  H        12.6259659100        3.1305959777       17.6799726081
  S         6.2938423811        6.4105488042       18.1942403751
  C         6.2363261518        9.0088157084       18.7678829766
  H        15.4771818294        4.6966797226        5.3739773404
  H        16.3113060409        5.7597818303        4.4301292431
  C        16.5233325870        6.2501954954        6.5306919256
  H         5.4462713916        5.3544321597        3.8914159498
  H         5.9838375767        4.1824102767        2.7796589853
  C         4.7498926134        5.7348380692        1.7247451247
  S        11.3008094856       -2.3537536373        1.0810618492
  N        11.7284922695       -1.8645979412       -0.3937729962
  C        12.3010579272        0.1560115387       -1.5880549210
  H        12.4615993830        2.2183828119       -2.2948077605
  C         6.0043367235        7.0330585047       19.7812714646
  N         6.0327541319        8.3895909124       19.9470708328
  O         6.2358883711       10.2235715676       18.6895210813
  H        16.7861822639        7.2396917742        6.4312279703
  H        15.9792400409        6.4683415932        7.4684175959
  C        17.7149907540        5.3857181439        6.7814411029
  H         5.2276070747        5.6339790551        0.7351854764
  H         3.8935304058        5.0414989974        1.7478091851
  C         4.3242610545        7.2305141163        1.9164247487
  C        12.5338026727       -0.4979087275       -2.7449214273
  S         5.6971032970        6.0500788420       21.1375673841
  C         5.9711701841        9.0715675655       21.2689543869
  H        17.4150436898        4.4598342098        7.2890789738
  H        18.3380039519        4.9042883692        5.9471965625
  C        18.7652809736        6.0633634721        7.7116236039
  H         4.5393499435        7.5423146242        2.8653190477
  H         3.2422899754        7.3633286046        1.8987230215
  C         4.8476521190        8.1568277665        0.7827497392
  H        12.3053952585       -1.5790394703       -2.7227959421
  C        12.9257427541       -0.1360647909       -4.0029974926
  H         5.1426286309        8.5249525600       21.6961465899
  H         5.6940487833       10.1118154574       21.1585234134
  C         7.4798914872        8.9864858615       21.8154461316
  H        18.9816811399        5.2597558803        8.3559987392
  H        18.3843956135        6.9996003339        8.2944005046
  C        19.9377899607        6.3586224465        6.8040775223
  H         5.8376260196        7.7745371285        0.4438519265
  H         4.2316436606        8.0029169791       -0.0584158577
  C         5.0058289374        9.6700346970        1.1094097972
  S        13.4771994906        1.4725704492       -4.4197251721
  C        13.0646960565       -1.1374974560       -5.0835423185
  H         7.6950258110        8.1522006793       22.4570597657
  H         7.5852763294        9.8114840871       22.4112303010
  H         8.1978707730        9.0338971362       20.9922255210
  H        20.2838438078        5.4996772577        6.2754073966
  H        19.5717538491        7.1107100350        6.1089965041
  H        20.7981181085        6.7997003549        7.3350402509
  H         4.0912258109       10.2729970573        0.7157179017
  H         5.1501212092        9.6713806241        2.1973582897
  H         5.9031220707       10.0267766364        0.6431237241
  C        13.7817905843        0.8130729737       -6.0821012526
  N        13.7056192152       -0.5225699739       -6.1253226737
  O        12.8368377402       -2.2892072826       -5.0339140572
  S        14.6887845197        1.6846338554       -7.3304690061
  C        13.9267655790       -1.2739652505       -7.2920089257
  H        14.1772879727       -2.3231159194       -6.9664445034
  H        14.7385987110       -0.9765787943       -7.8326619160
  C        12.6926361790       -1.2685312165       -8.1724906903
  H        12.1844969482       -0.2473057369       -8.1137027575
  H        12.0396500353       -2.0815567861       -7.8860837448
  H        12.9743862137       -1.4533763699       -9.2287028651
