352
 i =    73600, time =    36800.000, E =        98.4649268931
  H        12.3888549200        6.9805799068       32.2543960654
  C        12.1203505897        5.9599395774       32.3395656030
  H        13.0199047310        5.3741059748       32.3227325332
  C        11.1929261641        5.6556127813       31.2008173409
  C        11.3849280279        5.8224344406       33.6682907001
  C        11.7110666988        6.0642965096       29.8575429576
  H        11.1121568537        4.5530250378       31.1888775813
  H        10.2216716471        6.0971676096       31.3296786691
  H        11.2532262451        4.7348375935       33.8499442226
  H        12.0375936979        6.1505185179       34.5098795024
  H        10.4025099203        6.3480953241       33.6971003593
  C        10.6574722299        5.6196278812       28.8094605928
  H        12.7163228318        5.6630490494       29.5601044451
  H        11.7470119615        7.1396788094       29.6752559641
  C        11.1080668214        5.7794190374       27.3687363327
  H        10.2800064852        4.5968045127       28.9380483423
  H         9.8987053648        6.4317950057       28.9911049455
  C        10.1294396899        5.2710563816       26.3871114466
  H        11.9616968961        5.1047859496       27.1568653066
  H        11.3451294755        6.7377981525       27.1079001487
  C         8.8713252872        6.1035977550       26.3245482545
  H        10.6357533323        5.3699957685       25.4003779355
  H         9.8662565342        4.1424954488       26.4577321669
  C         7.6490665107        5.2985069085       25.6700731017
  H         8.6592080553        6.5809969129       27.2868136026
  H         9.1775305503        6.9546486988       25.7268071083
  C         7.3495716488        3.9421237244       26.3762064530
  C         8.0831415010        4.5793370317       24.4630264657
  C         6.3342732805        6.1126840825       25.3908675351
  C         7.4664222400        2.8459637507       25.5430821421
  C         6.9804722055        3.5069597529       27.6378922218
  C         7.9815309445        3.2540052118       24.3613389473
  C         8.4388786940        5.1755580529       23.2652441656
  H         6.4769841410        6.7936524699       24.5317461464
  H         6.1542233942        6.6919466928       26.2786997901
  C         5.1078701962        5.3780838536       25.0457667318
  S         6.8990439408        1.3354010757       26.1141293925
  C         6.5613354402        2.2110523629       27.5695764334
  H         6.8557100714        4.1889850498       28.3959337123
  C         8.2553049998        2.5659936719       23.1945430654
  H         8.4967356838        6.2623249456       23.2310897184
  C         8.6094748262        4.4924825963       22.0750349900
  H         5.3164727347        4.8857875697       24.0941632318
  H         4.9727902037        4.5542087031       25.7822798480
  C         3.8620223919        6.3502239962       25.0146892745
  C         6.0210803627        1.5506410733       28.7928917140
  C         8.5562740437        3.1561296124       21.9805330011
  H         8.0865777546        1.4829147973       23.2939138861
  C         9.0405071892        4.8277162613       20.8317312184
  H         3.1157928072        5.9950554521       24.3307455120
  H         4.2293539603        7.2948896763       24.5663319190
  C         3.0936948845        6.5412654356       26.3394390551
  C         6.1282662725        0.2118007519       29.1222049297
  C         5.6033243324        2.4221536262       29.9232287042
  C         9.0054543716        2.4097044556       20.8243602934
  C         9.2587267511        3.7399294166       20.0609930981
  S         9.2625105274        6.2962390023       20.0020917013
  H         2.2874193769        7.2423656336       26.1034033484
  H         3.7317605087        7.1555271336       27.0261295402
  C         2.7292741027        5.2955286920       27.1164751322
  N         6.4830657221       -0.8125402180       28.2379593157
  C         5.7555971469       -0.2640931032       30.3612501223
  C         5.3792546612        1.9677206805       31.1882827785
  H         5.2763004620        3.4369217394       29.7360781935
  C         7.9394147949        1.5864288242       20.1798886360
  C        10.3345710658        1.6613944124       21.1837089555
  C         9.7294167309        4.0432929904       18.7910937307
  C         9.8325131508        5.3962979973       18.6808123225
  H         2.2545323731        4.6024285578       26.4492245901
  H         3.5978186438        4.7269540536       27.3609247784
  C         1.8614378160        5.6154254594       28.3114950624
  S         6.3916422294       -2.2303524352       29.0171297896
  N         5.8923553794       -1.6472479454       30.4769276325
  C         5.3032888653        0.5425825662       31.4183203401
  H         5.0951218505        2.7417740663       31.8659964186
  H         7.7079240906        0.9413394382       20.9761350449
  H         8.3791623405        1.0841806487       19.3435872500
  C         6.7021357812        2.3323763138       19.6993823530
  H        10.4331823296        0.8908466763       20.4642419881
  H        10.2293913238        1.2320732120       22.1615110048
  C        11.6160704519        2.5263419560       21.2202772067
  H         9.8794024820        3.2049748564       18.1132355174
  C        10.1836108552        6.1565745914       17.4024028035
  H         0.9964479913        4.9972904552       28.2796821968
  H         1.5462300498        6.6506230250       28.1074867861
  C         2.4855404727        5.6214526107       29.6575054755
  C         5.0772606440       -0.0016771062       32.7724133744
  H         6.9466588058        3.1038105412       18.9894590808
  H         6.2165512581        2.8290123666       20.5372603071
  C         5.5480512890        1.3648794904       19.2233910771
  H        11.4910865776        3.1553852609       22.0591914585
  H        11.7046299445        3.2283233057       20.4283255755
  C        12.8651428865        1.6546631096       21.4320828154
  C        10.2815596495        7.5437906770       17.2298349339
  C        10.3778757175        5.3442251736       16.1649419513
  H         3.0287136232        4.6707213435       29.6851550874
  H         3.2140626879        6.4242388435       29.6347377122
  C         1.5414385167        5.7354495327       30.8016423459
  H         5.3683647761       -1.0181650629       32.7632169383
  C         4.8512916455        0.5321797102       34.0407989008
  H         5.2177301407        0.6197637013       19.9458582318
  H         5.9144746863        0.8340544147       18.3762160868
  C         4.3419401813        2.1601254672       18.7988070594
  H        12.7537113304        0.8665959342       22.2098846398
  H        12.9322194403        1.1123218740       20.5420668118
  C        14.1297995625        2.4849215599       21.7499188973
  N        10.0086593196        8.4781999386       18.2503572113
  C        10.5247819811        8.1223174119       15.9350747150
  C        10.6356965513        5.8846209561       14.9127141575
  H        10.0006011275        4.3299052729       16.2201807161
  H         1.1205219517        6.7535147976       30.8358095248
  H         0.7852262861        4.9327311602       30.6041716206
  H         2.0831412683        5.6619939551       31.7094800563
  S         4.5143093570        2.2141820572       34.4380689373
  C         4.8480140955       -0.4188706292       35.2067496864
  H         4.0744532019        2.8236885586       19.6446423678
  H         4.3960515328        2.5486134160       17.7888970478
  C         3.1328945317        1.1545980454       18.7423391379
  H        14.0794222611        3.4575143703       21.2963747508
  H        14.9153765946        1.9519603258       21.2463234051
  C        14.4627144906        2.6001009783       23.1890986632
  S        10.1626656615       10.0076003515       17.6105580732
  N        10.5359129675        9.5299198333       16.0696796032
  C        10.7337838101        7.3482679277       14.7597166108
  H        10.8319600594        5.1665671898       14.1430337532
  C         4.3561600344        1.6022491315       36.0760612495
  N         4.4754598690        0.2305314223       36.2661229741
  O         5.0388479735       -1.6681462650       35.1505386301
  H         2.2773186091        1.7872933968       18.8889524292
  H         3.1871765451        0.3813561820       19.4716560083
  C         2.9634040265        0.4230941399       17.4016150090
  H        13.5973657364        2.6938434222       23.7994930099
  H        14.9869478481        1.7119052693       23.5868074333
  C        15.4415413994        3.7018253382       23.4069062180
  C        11.0914853100        7.9639951241       13.5474214866
  S         3.9474823124        2.5519625776       37.4429710305
  C         4.2897253162       -0.4120662814       37.5597958686
  H         2.7083186170        1.1851056028       16.7076314357
  H         3.8976839471        0.0157382530       17.1035970180
  C         2.0057166635       -0.7341750081       17.3368621592
  H        15.5625733749        3.6918848309       24.5428907209
  H        14.9071585690        4.6111230841       22.9836899802
  C        16.8925036635        3.5259006649       22.8813053315
  H        11.2094286221        9.0321794179       13.5464634711
  C        11.4226905354        7.4760408737       12.3312642879
  H         3.6875450378        0.0788886194       38.2369748551
  H         3.6902369660       -1.2696880986       37.2690287987
  C         5.6602327923       -0.7304157849       38.2600887299
  H         1.5555404502       -0.5769487580       16.3460196895
  H         1.1632119772       -0.3915778476       17.9821381858
  C         2.4650347722       -2.0812606991       17.7067128452
  H        16.9233852629        3.3979068077       21.8081771388
  H        17.4293935347        4.4611864444       23.1234564379
  C        17.6430332642        2.3397247307       23.5343381523
  S        11.6977512277        5.8716145793       11.9379091501
  C        11.7328876939        8.5036949832       11.2925767046
  H         5.7126655718       -1.7329651164       38.6641736632
  H         6.5496160919       -0.5011174635       37.6534917210
  H         5.8527278966       -0.1099865727       39.0635684467
  H         3.2482575755       -2.5081102754       17.0947776829
  H         1.6266849087       -2.7589361624       17.7307091395
  H         2.9175642773       -2.1243494614       18.7353483479
  H        18.6360376557        2.0650141165       23.1099016243
  H        16.9984083692        1.4950291807       23.4161076123
  H        17.8908382751        2.4280516836       24.6162946352
  C        12.2756832589        6.5365532389       10.3636945696
  N        12.3115945230        7.9130883513       10.2565883440
  O        11.6524916763        9.7190553957       11.4705563253
  S        12.8211138609        5.6058836269        9.0049618493
  C        12.6542126239        8.6727595089        9.0969633911
  H        13.0036741043        9.6577659793        9.2986681007
  H        13.4382887760        8.2017213816        8.5408232163
  C        11.4775490415        8.7847062796        8.1713236009
  H        10.7665555696        9.6038027901        8.4277803611
  H        11.8611712433        8.8072781328        7.1371577938
  H        11.0485121729        7.8043139242        8.1592798081
  H         2.1458655872        1.5878269936       12.5955772188
  C         3.0966702989        2.0699781569       12.5304834282
  H         3.8131686122        1.3339611552       12.2483732047
  C         2.9982688257        3.1355309400       11.4972878808
  C         3.5763859128        2.6268470311       13.8150003810
  C         4.2312057424        3.0651774061       10.5800945504
  H         2.8739307048        4.1752393540       11.9503265371
  H         2.2393319160        3.0179935544       10.7458429968
  H         4.2643575852        1.9461143454       14.3735315000
  H         2.8007913657        3.0668118628       14.4123950438
  H         4.1702534445        3.5033240491       13.7815526298
  C         4.4596855114        1.7111323673        9.7995473796
  H         4.1079205136        3.9278603438        9.9448440639
  H         5.1400563250        3.0747377359       11.1266542343
  C         5.1046115514        1.9189683653        8.4336428023
  H         3.4474951226        1.3096991720        9.6893073528
  H         5.0346091805        0.9976499620       10.3963762903
  C         6.4246783933        2.6241538695        8.5529923931
  H         4.3865667872        2.5246739107        7.8063390212
  H         5.2037609792        1.0269338042        7.7715231492
  C         7.6325805646        1.7099908258        9.0208723306
  H         6.6388925872        2.9072400160        7.5665201462
  H         6.3147954498        3.5945170442        8.9996790666
  C         8.9502437062        2.5456739610        9.2394073970
  H         7.6127020127        1.1114168979        8.0950953968
  H         7.3975586145        1.0439205594        9.8199488909
  C         8.6324174078        3.8704186374       10.0092823774
  C         9.4442239025        3.3370676413        8.0471459204
  C        10.0533180869        1.7050474018       10.0058770751
  C         8.8943964487        4.9960381920        9.2751319392
  C         8.2199452138        4.1866870491       11.3254707054
  C         9.4027080877        4.6765450874        8.0277042194
  C         9.8235945421        2.8060050288        6.8373826406
  H         9.6734746305        1.4096431337       10.9981903376
  H        10.3855656888        0.7366810686        9.6663188203
  C        11.2105500353        2.5528891491       10.1926041543
  S         8.5661222035        6.4581628708       10.1404513969
  C         8.0833415033        5.5602255695       11.4770047120
  H         7.9930463361        3.3624960739       12.0177054398
  C         9.8646366781        5.3417305937        6.8979646510
  H         9.8925475077        1.7211002858        6.7942958544
  C        10.2905788057        3.4560947440        5.7292423508
  H        10.9147432163        3.5237263609       10.5342568916
  H        11.8765696714        2.7154542282        9.3314274400
  C        12.1133030151        1.9589675840       11.2866994295
  C         7.6726839153        6.2375815046       12.7184636745
  C        10.3640254898        4.8125918417        5.7022320246
  H         9.9016659084        6.4185371707        6.9266438751
  C        10.7470047064        3.0778975864        4.4621558212
  H        13.1021431483        2.4168479402       11.1295856965
  H        12.1477528686        0.9091608727       11.1448503860
  C        11.7219913426        2.1752314768       12.7323135768
  C         7.7071044024        7.6307598029       12.9603698678
  C         7.1849664479        5.3881985597       13.8587561772
  C        10.7559284865        5.4812793821        4.3928939320
  C        10.9012016309        4.1549430641        3.5873871617
  S        10.9852099051        1.5385680060        3.6807423725
  H        11.3762866607        3.2269268950       12.7892539371
  H        10.9354502546        1.5006722747       13.0338676328
  C        12.9361108557        1.9175646305       13.6736429147
  N         8.0011563372        8.6401585195       11.9826572275
  C         7.6200482504        8.1554230381       14.2100220011
  C         6.9615948071        5.9501192769       15.1208130084
  H         7.0187082333        4.3483857889       13.7164911987
  C        12.0248473204        6.3578246445        4.5769854411
  C         9.6308138745        6.3595114105        3.7739069182
  C        11.1858093937        3.7197529507        2.2838471061
  C        11.3392834020        2.3755313155        2.1598936696
  H        13.4334288291        2.8346278271       13.9912396204
  H        13.6428080583        1.5237713530       12.9897806718
  C        12.6882078568        0.7769856085       14.6891909733
  S         8.2415870553       10.0501533768       12.7736741838
  N         7.7981514902        9.4979966645       14.2268420922
  C         7.2112333331        7.4321749326       15.3500538079
  H         6.5991668995        5.2923447626       15.8780506686
  H        11.8184030248        7.0766334798        5.3283880130
  H        12.1199024077        6.9969937751        3.6603835544
  C        13.3565470678        5.6500109234        4.8248118908
  H         9.4819020150        7.2817840700        4.3323876066
  H        10.0339218175        6.6731975600        2.8147344246
  C         8.2945519839        5.6193456265        3.4602047847
  H        11.3977054957        4.4538610160        1.4703315878
  C        11.7520639648        1.7126119673        0.8525566225
  H        12.1144276624       -0.0557896297       14.2828698884
  H        13.6135550058        0.3397667906       15.1053248936
  C        11.9537538583        1.2920337028       15.9434827690
  C         7.0982757950        8.1282139898       16.6058003872
  H        13.3315640545        5.0439415522        5.7533527100
  H        13.6100896968        4.9396265964        3.9837297008
  C        14.5121253978        6.6673464901        4.8979353003
  H         7.6199948980        5.6247934644        4.3443793536
  H         8.4354434785        4.5516408790        3.2040608506
  C         7.6561245372        6.2124494323        2.2419979512
  C        11.8364813289        0.3323035764        0.7329324492
  C        11.9548403066        2.5397697601       -0.3512881431
  H        11.4226738877        0.4706839507       16.3805300679
  H        11.2098325993        2.0147375746       15.6131877687
  C        12.8418558039        1.9420049878       16.9056411067
  H         7.3378899016        9.1567242019       16.5502850782
  C         6.7365416988        7.7038435407       17.8557527661
  H        14.3032869304        7.4511505851        5.6521500586
  H        14.5993393933        7.1940597569        3.9824019748
  C        15.8327588804        5.8931462137        5.1918576725
  H         7.8915178303        7.3075826807        2.1454101251
  H         8.0916034409        5.6478744717        1.3614242810
  C         6.1397745901        6.0830245716        2.2772857583
  N        11.6779735804       -0.5792006111        1.7858392465
  C        12.2265252158       -0.2177816551       -0.4593933734
  C        12.3279226927        1.9458364434       -1.5266742906
  H        11.6006216617        3.5765318216       -0.3224050212
  H        13.6241296013        2.6099705030       16.4372802568
  H        13.3477789541        1.1313175534       17.3304733643
  H        12.2978656633        2.4322254376       17.6139085177
  S         6.1338586314        6.1545916822       18.2337297147
  C         6.8295231213        8.7194563738       18.8887811395
  H        15.5589190695        5.1310305936        5.8965949690
  H        16.0997251194        5.2485364924        4.3073482001
  C        17.0718299566        6.6791510000        5.6422876919
  H         5.8433657735        6.4540562342        3.2436134052
  H         5.8128234917        5.0341719797        2.2367408030
  C         5.4326747710        6.7883731247        1.1166686342
  S        11.7741591505       -2.0512415113        1.1542157736
  N        12.2271805530       -1.6030734727       -0.3721084898
  C        12.4637124147        0.4782619649       -1.6756532081
  H        12.4717521976        2.6144917717       -2.3309151374
  C         6.0883062620        6.8212589295       19.9481762055
  N         6.2843696053        8.1905668002       19.9927372125
  O         7.0289845648        9.9095939360       18.6564883716
  H        17.5937904270        6.9946187909        4.7776526540
  H        16.7327559665        7.5847283948        6.0715308558
  C        17.9142291789        5.8600982207        6.6810477125
  H         5.9507184646        6.6770863193        0.1854762988
  H         4.4865523344        6.3215301909        1.0150312120
  C         5.2308323623        8.3112299932        1.3681098540
  C        12.9474025119       -0.3075932132       -2.8034930949
  S         5.5970562095        5.9289162296       21.4055779881
  C         6.1996241040        9.0483838223       21.2147175572
  H        17.4557579013        5.8384124982        7.6273369618
  H        18.0127453620        4.8534040390        6.3768949601
  C        19.2911007920        6.4086353101        6.8505351647
  H         5.8380122404        8.8485011810        0.6161297626
  H         5.4596361817        8.4682389286        2.4239237747
  C         3.7850566423        8.7549002616        1.2884964501
  H        12.6229530238       -1.3159479134       -2.7113843471
  C        13.4420203017       -0.0419804265       -4.0343079778
  H         5.4742705969        8.5313945865       21.7695312179
  H         5.7937277755       10.1138265732       21.0271250641
  C         7.5104972697        9.0449489451       21.9915268067
  H        19.6061730497        6.3388940221        7.9090533960
  H        19.4007266693        7.4330095916        6.5510964897
  C        20.2719289757        5.7924262137        5.8424101196
  H         3.5090988197        8.7470078396        0.2851391436
  H         3.2055342254        7.9687003847        1.7872247952
  C         3.5107123148       10.1884741563        1.8264612433
  S        14.0025234192        1.5414438900       -4.5286865254
  C        13.5162042796       -1.0611246068       -5.0467269964
  H         8.2981009794        8.5896613492       21.4137797282
  H         7.4187047116        8.4063864037       22.8561832672
  H         7.8874623419       10.0595470978       22.2000087787
  H        20.0447367715        4.7964564048        5.4651377828
  H        20.5137629514        6.5545630207        5.0733020123
  H        21.2032353012        5.6374977554        6.3787834224
  H         3.2141671858       10.2445072758        2.8965960720
  H         4.4765309832       10.7107605846        1.8199155151
  H         2.7654342247       10.6541246932        1.1687261123
  C        14.1611165771        0.8655989346       -6.1793421623
  N        14.0028908603       -0.5100133998       -6.1990694106
  O        13.1928861959       -2.2144404571       -4.8617795822
  S        14.7027107994        1.7557555356       -7.5756015064
  C        13.8648070668       -1.2257634899       -7.4359275274
  H        13.9094040175       -2.2491073615       -7.2737456089
  H        14.7314976092       -1.0094362754       -8.0395579899
  C        12.5256370383       -0.9919848920       -8.1300310275
  H        11.5965103469       -0.8532555318       -7.4873544284
  H        12.3710548674       -1.8169733648       -8.7658863954
  H        12.6937118412       -0.0352320189       -8.7629092873
