352
 i =    12800, time =     6400.000, E =       125.6860158251
  H        11.0362108355        5.2636312552       32.8255825018
  C        10.4834248888        6.1967493684       32.7955090502
  H         9.7390374326        6.1558001041       33.5778167015
  C         9.7411940081        6.3386446576       31.4947028285
  C        11.4719934725        7.2156994766       32.9740440879
  C        10.5787882582        5.9649890817       30.2000915752
  H         8.8620595368        5.6628878343       31.6801321283
  H         9.2292029715        7.3734324869       31.2428675772
  H        12.1061767384        7.1673020999       33.8297085194
  H        12.2005473254        7.3533507383       32.1638956496
  H        10.8898607919        8.0985812738       32.9517579847
  C         9.8062173118        5.2492200575       29.0392780275
  H        11.5085250659        5.4788548552       30.4078783330
  H        11.0218703724        6.9397133915       29.9357634928
  C        10.2894005853        5.6604277459       27.6361396340
  H         9.9812482924        4.1190166239       29.1442648274
  H         8.7454035245        5.3957578885       29.1605686956
  C         9.2972486160        5.1087812827       26.5802462525
  H        11.2518816476        5.1549938517       27.4384444152
  H        10.5779356420        6.6898642709       27.6192055637
  C         7.9928433019        5.8780336684       26.3865698422
  H         9.7951570357        4.9697342178       25.6101820059
  H         9.2017929593        4.0734153774       26.8814768640
  C         6.9661700696        5.1635101424       25.5861433302
  H         7.5999216883        5.9680872930       27.4294791816
  H         8.2688762395        6.8726070799       26.0214730047
  C         6.6261772138        3.7814682841       26.3429317601
  C         7.4535672846        4.4943935731       24.4204997914
  C         5.7089507885        6.0752792581       25.3917368792
  C         7.0089351729        2.7170301616       25.5314359936
  C         6.0282446557        3.3697742270       27.5226145741
  C         7.5413212163        3.1410210301       24.3103864378
  C         7.9538304259        5.1176097952       23.2606110524
  H         5.8986637327        6.7130534511       24.5420663059
  H         5.5088688452        6.6486365904       26.3079024471
  C         4.4342218477        5.2965075886       24.9205476922
  S         6.6463771246        1.2164642409       26.2994001233
  C         5.9822092322        1.9998182542       27.6876549125
  H         5.6317704084        4.1236954662       28.1686210115
  C         8.0257389781        2.4939153896       23.1943880040
  H         7.7716954674        6.2239606364       23.2376093574
  C         8.2963690354        4.4704516226       22.1283442675
  H         4.8249845658        4.6890435528       24.0333544934
  H         4.1569925317        4.5199223824       25.5745490920
  C         3.2185158310        6.2417172990       24.6653689874
  C         5.6055492687        1.2827488625       29.0085310822
  C         8.4467151008        3.0998192412       22.0405038949
  H         8.0937003891        1.4761451766       23.2750774135
  C         8.6779431413        4.9476930660       20.8757106092
  H         2.3181976402        5.7582851159       24.0978297281
  H         3.5543464145        7.0072894748       23.9832305031
  C         2.5631986469        6.7467859177       25.9002046941
  C         5.7585038768       -0.0226700015       29.2586111800
  C         5.1163172878        2.1299174894       30.0738928104
  C         8.8689997283        2.5294797738       20.6795852791
  C         9.0786070197        3.8933847918       20.0389311930
  S         8.8618269500        6.5147630900       20.0613447823
  H         2.0002535582        7.5638354442       25.7013652958
  H         3.3667162467        6.9678761821       26.5798708713
  C         1.8823239579        5.6020609142       26.6850872000
  N         6.2426645148       -0.9658668753       28.3813917832
  C         5.4988145287       -0.5827001484       30.5103815905
  C         4.8902838427        1.5801676383       31.2992454764
  H         4.8052386139        3.1383640157       29.9107619478
  C         7.8202534916        1.6778847075       19.9039229618
  C        10.1864278257        1.7491114346       20.9166064605
  C         9.4284521900        4.2972520328       18.7689367588
  C         9.4000467148        5.6685159626       18.6537588188
  H         1.1206570478        5.1169116897       26.0981945479
  H         2.4907241066        4.7583752069       26.8973356553
  C         1.4167328187        6.2815745986       28.0091553571
  S         6.0878480616       -2.4268109626       29.0400107543
  N         5.8690137857       -1.8783676137       30.5884609371
  C         5.1291958074        0.1660409017       31.6132646416
  H         4.4184437420        2.1961923346       31.9969746377
  H         7.5424495762        0.7652843420       20.5365849832
  H         8.3119222863        1.3287356695       19.0023329652
  C         6.5412166436        2.4021125801       19.5524001166
  H        10.4291723295        0.9989984759       20.1757663423
  H        10.0645992924        1.0627371084       21.7378110554
  C        11.4416697194        2.6320514442       21.2632096527
  H         9.7363406773        3.5155700589       18.1690536561
  C         9.8052168777        6.4265608075       17.4090134698
  H         0.8257849296        7.1942929479       27.7632933842
  H         2.3846856207        6.6234958755       28.3207155175
  C         0.6619308638        5.5031137049       29.1732950497
  C         4.9182934473       -0.5211239093       32.8361429149
  H         6.6663020308        3.4074345012       19.1810065590
  H         6.0739047341        2.5303877052       20.4390252980
  C         5.5000997245        1.7721364551       18.6000335717
  H        11.2213273098        3.0944271006       22.2612868426
  H        11.6510153484        3.3779088508       20.4840199409
  C        12.6501218242        1.7309982589       21.4400256955
  C         9.9099836307        7.8271476329       17.2276273216
  C         9.9248045651        5.6639682143       16.1355706300
  H        -0.3471460879        5.8604354457       29.4006683035
  H         0.3780430590        4.5193648024       28.8571467379
  C         1.4352205230        5.4302244559       30.4544863979
  H         4.9394856793       -1.6037517627       32.7409764281
  C         4.5150830667       -0.1593435496       34.0998338671
  H         5.2317317124        0.7917634169       19.0244118811
  H         6.1001271731        1.7106551358       17.6089674464
  C         4.2028093679        2.6298032861       18.4004808974
  H        12.3812096156        1.0747361387       22.2399719326
  H        12.7955169136        1.1139092388       20.5065838535
  C        13.9432921975        2.5129810270       21.5901043033
  N         9.7708615864        8.7240721217       18.2381630466
  C        10.2634564723        8.4744244495       16.0201416497
  C        10.2526444189        6.2669790534       14.9009809171
  H         9.7440222188        4.6270198015       16.1273436252
  H         0.7376681202        4.9098062565       31.1844991299
  H         2.3416771217        4.8720047312       30.1595217693
  H         1.6860436970        6.3870538344       30.7358365700
  S         4.2150357157        1.4659506092       34.6743905730
  C         4.3438670872       -1.2268080817       35.1155293983
  H         4.1050143810        3.3257581059       19.1962173493
  H         4.0786742259        3.1542359452       17.4538947352
  C         2.9122597551        1.7054522612       18.4495327819
  H        13.9106828145        3.5028215743       21.3716245497
  H        14.7887844764        2.0429249377       21.0969440409
  C        14.1876995336        2.3287185576       23.0516064811
  S         9.8740770385       10.2506833830       17.5777399606
  N        10.2274408230        9.8432435905       16.0700116577
  C        10.4290917753        7.7481609899       14.8604085722
  H        10.4057860136        5.6930392455       14.0547168817
  C         3.8278307794        0.6903656177       36.2148486353
  N         3.9405047750       -0.6887552435       36.2938042398
  O         4.4766630700       -2.4134640487       34.8455930517
  H         1.9778647179        2.3535416375       18.3179721870
  H         2.8867761513        1.4789052942       19.5262239229
  C         2.8755183225        0.5400311456       17.4880151574
  H        13.4462318214        2.8487841959       23.6432376662
  H        14.2586366649        1.2275343414       23.3962228395
  C        15.5645116394        2.8086315025       23.5569134584
  C        10.8500796394        8.6075079677       13.7409271031
  S         3.4799705378        1.5645927664       37.6842739558
  C         3.9941594082       -1.4796709395       37.5257110497
  H         1.9795802464        0.7098978578       16.8593827601
  H         3.7113414756        0.6062068982       16.8499039163
  C         2.7719804176       -0.8486474572       18.1744156009
  H        15.4596911665        2.7500369977       24.6762280967
  H        15.7534695218        3.8356768832       23.1756833893
  C        16.7148170292        1.8294024376       23.2242523796
  H        10.8842472099        9.6840062342       13.9462422525
  C        11.1966315438        8.3621509517       12.4480988558
  H         3.2782996824       -1.3247447635       38.3631852372
  H         3.7341012989       -2.4821846335       37.2342384974
  C         5.3534587659       -1.5705481934       38.1561646515
  H         1.7811802819       -0.9675773072       18.5960061836
  H         3.5177126280       -0.6680548458       18.9820367731
  C         3.0872852300       -2.0291017410       17.2048208619
  H        16.8173627940        0.9564449657       23.8344705892
  H        16.6306395851        1.5840117093       22.1622758404
  C        18.0897639751        2.4666492960       23.2727982317
  S        11.8004066690        6.8855988614       11.8421898522
  C        11.0897411702        9.4700730673       11.5238551424
  H         5.2424203107       -2.3831005112       38.9295162696
  H         6.1366198099       -1.7739390059       37.4862390498
  H         5.5806747509       -0.6690215147       38.6873943933
  H         2.7566999843       -2.9070465235       17.6901546854
  H         4.1359966521       -2.2730571187       17.0715137793
  H         2.7765573092       -1.9045864615       16.2101811305
  H        18.8363412266        1.8622496383       22.8196834189
  H        18.4293124139        2.4972966342       24.2645741216
  H        17.9563313730        3.4508319615       22.9321881955
  C        12.2669674369        7.7850527036       10.4368464539
  N        11.8549701913        9.0684982814       10.4426912105
  O        10.5736391875       10.5629522066       11.7549562441
  S        13.1576308208        7.0898851126        9.0373282622
  C        11.9516868692        9.8998354811        9.2664605751
  H        11.8609744444       11.0047856745        9.5946331897
  H        12.8845194533        9.8318151228        8.7216006478
  C        10.7009142585        9.7190687952        8.4041028655
  H        10.9422099980       10.0283088860        7.3709994613
  H        10.3019966561        8.6832463324        8.3678217082
  H         9.9317890594       10.4920791640        8.5884382211
  H         4.2684533806        1.4330853735       12.6464809752
  C         3.6994820556        2.3679190614       12.8111680814
  H         4.4210362679        3.1919523580       12.8152026994
  C         2.8365852163        2.5184524844       11.5890675377
  C         3.0304554350        2.4948902335       14.1580249977
  C         3.5653549049        2.6061101762       10.3119894368
  H         2.1943661682        3.3831147668       11.8363282689
  H         2.1874618393        1.6446477649       11.5491653070
  H         2.8874812788        1.4565425716       14.5623642516
  H         2.0438072964        3.0873236235       14.2083972352
  H         3.7238757492        2.8573500966       14.8629088306
  C         4.5427307103        1.4662324847        9.9771255752
  H         2.9236450654        2.7642184548        9.5324721641
  H         4.0546784807        3.5393785715       10.2520148814
  C         5.1919120579        1.7421258046        8.5915076988
  H         4.1656327076        0.4643420957        9.9563468613
  H         5.2571509885        1.2916214777       10.7146677642
  C         6.4913267964        2.6453869096        8.7157465549
  H         4.3188114412        2.1000672081        7.9756954654
  H         5.4884192317        0.8134374007        8.0963048835
  C         7.7504882416        2.0021267364        9.2180012104
  H         6.7321455138        3.1751563318        7.7977504158
  H         6.1242997861        3.4178947608        9.3619527884
  C         8.8493053603        3.0644209519        9.3618265374
  H         7.8690566246        1.2731125164        8.3935713360
  H         7.5823281066        1.4553165832       10.1245051803
  C         8.4512757277        4.4385172349       10.0504829158
  C         9.1319770685        3.8382409276        8.1036440267
  C        10.0772005611        2.5075462268       10.0493611835
  C         8.6726352235        5.5855772370        9.3030591416
  C         7.9730997759        4.7932635177       11.3282081501
  C         9.0353363521        5.2142478192        8.0144135927
  C         9.5562388704        3.2707617922        6.8679423439
  H         9.7145834936        2.2626300410       11.0172944824
  H        10.3497025737        1.5182254133        9.6214038470
  C        11.3291097021        3.4252235308       10.2601852524
  S         8.3506020819        7.0405748779       10.0960413004
  C         7.9421569782        6.1663044925       11.5032365189
  H         7.7324610364        3.9870981500       12.0992588877
  C         9.3670384376        5.9118589284        6.8591851334
  H         9.5635065730        2.1899746675        6.9029398593
  C         9.9460991439        3.9466475260        5.7532965447
  H        11.0287785271        4.3582399482       10.6735805821
  H        11.7735778582        3.6424747649        9.2894003615
  C        12.2823267053        2.7551269505       11.2530826064
  C         7.4674612305        6.8945053208       12.7704197215
  C        10.0084107481        5.3131683684        5.7493304887
  H         9.1719203392        7.0323378540        6.9651611763
  C        10.4544827724        3.5806725107        4.5326036595
  H        13.2448454492        3.1612362689       11.2223547618
  H        12.4569559042        1.7828269909       10.9846428729
  C        11.8012727227        2.7553002285       12.7522650516
  C         7.5150192720        8.2614123651       13.0580673704
  C         6.9595215572        6.0737267574       13.8110926310
  C        10.4810007460        6.0279394083        4.4942698528
  C        10.7319021208        4.6783391235        3.7584108258
  S        10.6469615735        2.1112019259        3.7368277159
  H        11.0345121847        3.4877769297       13.0989334783
  H        11.3382395619        1.7745387746       12.7556256792
  C        12.9484076702        2.9076190687       13.7299204729
  N         7.8876342840        9.2705839900       12.1832685816
  C         7.2706884505        8.7990718247       14.3333873794
  C         6.7329778567        6.6021711332       15.0422037123
  H         6.7862886965        4.9681813460       13.8086081157
  C        11.8084609840        6.8758625654        4.7625889881
  C         9.3950509800        6.8197258960        3.7757059046
  C        11.1996633531        4.3235931929        2.5040141141
  C        11.2838252955        2.9754767941        2.3451389253
  H        12.7362457781        3.6263949425       14.4523968915
  H        13.9067937162        3.2445873300       13.3229810344
  C        13.1197213701        1.6249407565       14.5467946577
  S         7.7056840914       10.6848238181       12.9226519872
  N         7.3692537767       10.1379269006       14.4253995179
  C         6.8891109611        8.0052677906       15.4339931277
  H         6.5273987428        5.8545086375       15.8173682343
  H        11.4789232201        7.5394393223        5.5044248520
  H        12.0733111319        7.4868994368        3.8965442581
  C        13.0685671285        6.0379637730        5.3061843633
  H         9.1173735806        7.5975221132        4.4784690489
  H         9.8935115240        7.3580452531        3.0047894781
  C         8.1519896281        6.0513217710        3.3036051917
  H        11.5943190800        5.1610375997        1.8596028001
  C        11.5647591601        2.2609002600        1.0622510484
  H        12.4434083408        0.8273778800       14.3222348778
  H        14.0848521775        1.2497031138       14.3413445087
  C        13.1182825239        1.8321838248       16.0569017213
  C         6.6961466662        8.5096974439       16.7569824154
  H        12.9847732396        5.5687118979        6.3155755592
  H        13.3310154049        5.1987626175        4.6943414695
  C        14.2504927565        6.9465177709        5.3266362847
  H         7.7898104045        5.5452672464        4.1965664576
  H         8.4609894572        5.3464748610        2.5164327155
  C         7.1532045625        7.0636998111        2.7582549910
  C        11.7001219497        0.8217236975        0.8509639475
  C        11.8888946094        3.0812449345       -0.1837651479
  H        13.7354495846        2.6470418256       16.3405454553
  H        13.5066637861        0.9901798200       16.6074702448
  C        11.6815834110        1.8787792073       16.6020590943
  H         6.5790547873        9.5090684145       16.8304558376
  C         6.3282182993        8.0214849509       17.9799515774
  H        14.1313826541        7.4477262358        6.2226773067
  H        14.3135464424        7.6083304668        4.4353346747
  C        15.6637810824        6.2903083074        5.5775800581
  H         6.8555381647        7.6087461161        3.6466220682
  H         7.6612384778        7.8630501181        2.1863275767
  C         5.9697723713        6.3294291748        2.0837481320
  N        11.3720755487       -0.1104774907        1.9031817659
  C        12.0213231333        0.2287722422       -0.2996863837
  C        12.1952446468        2.4646878962       -1.3920507050
  H        11.8842259165        4.1570508495       -0.2454051573
  H        11.3131385342        0.8538711618       16.9008709289
  H        10.9093885531        2.2972350665       15.8555154839
  H        11.5804435464        2.5689984985       17.3720776729
  S         5.9130628519        6.3945680285       18.2758944567
  C         6.3858371081        8.9579397433       19.1698468079
  H        15.7658640656        5.4638366814        4.8433569625
  H        16.5853261128        6.8971510387        5.3693363296
  C        15.7551093516        5.6649568364        6.9262382783
  H         5.5307008824        5.6086688241        2.7550908780
  H         6.3770249724        5.6569707575        1.4051493816
  C         4.9899983692        7.1736292005        1.2594993930
  S        11.5538813986       -1.5843778345        1.2573028691
  N        12.0288210787       -1.1931031211       -0.2318624746
  C        12.2383618340        0.9751710683       -1.5053020124
  H        12.3221349257        3.0710569943       -2.2663068270
  C         5.6643092134        6.9306091947       19.9368812737
  N         5.9178298363        8.2634647071       20.1722453189
  O         6.6029235845       10.1776255546       19.1764070751
  H        15.7396575145        6.3995515373        7.7833686807
  H        14.7628828866        5.1740204896        7.0304691559
  C        16.8777076184        4.6863873122        7.0926360405
  H         5.4878052325        7.4998134725        0.3060846404
  H         4.3163060673        6.4280230169        0.9059479152
  C         4.3256076316        8.3890629274        1.9896729250
  C        12.4805480759        0.1488960084       -2.6592587021
  S         5.1360977451        5.8925348613       21.2015183674
  C         5.7054481647        8.8539483219       21.4817061555
  H        16.6436073421        4.1139138007        7.9626438742
  H        16.7817477215        3.8903285727        6.3481801927
  C        18.2376997524        5.3871005801        7.2069185381
  H         5.0474480829        8.9421045658        2.5619528761
  H         3.5872212020        7.9768626630        2.5858379254
  C         3.6516560747        9.3350495890        1.1347185412
  H        12.3874900939       -0.8787712372       -2.5112532364
  C        13.0076992250        0.4045099309       -3.8774867104
  H         5.2335002273        8.3497516626       22.2740020349
  H         5.3070287950        9.8059164200       21.2695505518
  C         7.1013956770        9.0430869063       22.2102262006
  H        18.7506272497        5.0050642904        8.1256324381
  H        17.9943903129        6.4660317625        7.1679174242
  C        18.9718334945        4.9085433576        5.9437506610
  H         3.3427581555        8.8342535174        0.1604005115
  H         2.7946836259        9.6567411015        1.6373679338
  C         4.5949666059       10.5487684113        0.8256908552
  S        13.6225873463        2.0034578720       -4.2605656517
  C        13.2531726603       -0.6919896617       -4.8146282368
  H         7.6245538244        9.9040235904       21.9218282262
  H         7.7363818389        8.2002823350       21.8788597931
  H         7.1164727057        8.9237865483       23.2864134227
  H        20.0066944466        5.2639851066        6.0823807746
  H        18.9522351925        3.8179171071        5.9551926113
  H        18.5346721183        5.3487376273        5.0089457024
  H         5.6913351537       10.4413575318        1.0816756678
  H         4.6647538821       10.7415429951       -0.3013525598
  H         4.1880866798       11.4699189173        1.2331778728
  C        14.0940127650        1.1931747963       -5.7931863915
  N        13.9931447673       -0.1748375045       -5.8502541649
  O        12.8092360560       -1.8074942123       -4.6384509205
  S        14.6322606904        2.0055284335       -7.3179874023
  C        14.4038688453       -1.0380421057       -6.9358061199
  H        14.4652376564       -2.0554761341       -6.5358768661
  H        15.3079955064       -0.7547004890       -7.4056309866
  C        13.2877368346       -1.1503861613       -8.0266197617
  H        13.4330434970       -0.2243140340       -8.5903295039
  H        12.2995917854       -0.9459757561       -7.4407028225
  H        13.2657162467       -2.0624833211       -8.6718137701
