352
 i =   122500, time =    61250.000, E =        98.6024413301
  H         9.9802726532        6.4231913097       32.3059037175
  C        11.0110675637        6.5812142973       32.5069590952
  H        11.1015005843        7.5961781464       32.7778402090
  C        11.6944750950        6.2774287973       31.1151413414
  C        11.3129538944        5.5849661370       33.6796301787
  C        10.6688317442        6.0376215082       29.9545137480
  H        12.3537578914        7.0634028583       30.8161417506
  H        12.4043241979        5.4629873186       31.1740989475
  H        11.9923660633        5.9993583281       34.4140456604
  H        10.4952680752        5.4137230142       34.3726223581
  H        11.6762372281        4.6006119223       33.3286643204
  C        11.4702641614        5.6890152483       28.7127941806
  H        10.1330552001        6.9610635513       29.8552840487
  H         9.9990074375        5.2632168790       30.2498222734
  C        10.8379625786        6.1432772083       27.4069360294
  H        12.4779158610        6.1526741429       28.7060572937
  H        11.6213030550        4.5750478461       28.6511165081
  C         9.7443943644        5.2409268747       26.8825546701
  H        11.5979875932        6.1470486554       26.6635424376
  H        10.4923299959        7.1292910837       27.4863959001
  C         8.6715972808        6.1101826427       26.1735776756
  H        10.1223774743        4.5491977401       26.1190067324
  H         9.3894909715        4.6906652380       27.7430408418
  C         7.5046462653        5.3076790399       25.5123278321
  H         8.3397007783        6.8019614559       26.9579263752
  H         9.1825950598        6.7094230839       25.4260977446
  C         7.1652878128        4.0167280774       26.2633798373
  C         7.8425442976        4.5369575228       24.3020078446
  C         6.1797093478        6.1637090680       25.3462456977
  C         7.4437492413        2.8560464697       25.5348599738
  C         6.7654378454        3.7254180558       27.5519855172
  C         7.8923340120        3.2249076824       24.2601568743
  C         8.3003705970        5.1484631236       23.1324598008
  H         6.3615082386        6.9623446754       24.5937811053
  H         5.9193002749        6.7845452655       26.2873805136
  C         5.0358747507        5.3144567406       24.8144417160
  S         7.0170986803        1.4995819063       26.3210343541
  C         6.6789602153        2.3731655825       27.7266116735
  H         6.6711412606        4.6343115473       28.2152890654
  C         8.2272460552        2.6247267509       23.1155756336
  H         8.3808151438        6.2272363086       23.2646326338
  C         8.6535595897        4.5514256750       22.0096176394
  H         5.1480263263        4.9552019000       23.8174041037
  H         4.8838567040        4.4156169920       25.3715350846
  C         3.6832448967        6.1709307497       24.9253742696
  C         6.1661082508        1.6412773433       28.9834529255
  C         8.6697842419        3.2409787871       21.9558299686
  H         8.1577114350        1.6048748812       23.1220443681
  C         9.0258635669        4.9985706245       20.7760385117
  H         2.9154541905        5.6656233676       24.3223118486
  H         3.7907475870        7.1478050184       24.5218653621
  C         3.0701241531        6.1536658537       26.3649464746
  C         5.9808412606        0.2366055431       29.1280563108
  C         5.8534818971        2.4172733349       30.1520168880
  C         9.0254660636        2.5486160872       20.6450861114
  C         9.1018331926        3.9144804434       19.9383049413
  S         9.2419936117        6.5019111386       19.9924506971
  H         2.2115877225        6.7842148212       26.4930997840
  H         3.7223305856        6.7150966008       27.0400284592
  C         2.8454798268        4.7641299018       26.8878572541
  N         6.1673407371       -0.7316697222       28.1124686706
  C         5.5843812873       -0.3650706104       30.2962489199
  C         5.3099371154        1.8965920581       31.3088549053
  H         5.9443964210        3.4601072552       30.1204017574
  C         7.9997651954        1.5865681633       19.9637595261
  C        10.4377747811        1.8918291853       20.6908192165
  C         9.4886476797        4.2891673840       18.6241871090
  C         9.5732820066        5.6443824182       18.4976438320
  H         2.6139754970        4.1616792811       26.0802815281
  H         3.8043881312        4.3958143758       27.3133449530
  C         1.6279280359        4.5812968017       27.9102394695
  S         6.1024372269       -2.2455198189       28.7815555212
  N         5.5717762020       -1.7948383104       30.2464497956
  C         5.1379297108        0.4261997490       31.4521496681
  H         5.0938095343        2.6263139702       32.1099501102
  H         7.5045047069        0.9181701881       20.6497129148
  H         8.5433704252        0.8459870228       19.3834067657
  C         6.8387251209        2.1834974324       19.1964547326
  H        10.6097798751        1.5538126292       19.6208069657
  H        10.4614669640        0.8768544428       21.1158726661
  C        11.6571473688        2.6984750190       21.2434911474
  H         9.6969220759        3.5669065499       17.8574421672
  C        10.0010575191        6.4045342581       17.2416071954
  H         1.6799876500        3.5342862146       28.1414444986
  H         0.6450489220        4.8536077573       27.4762719595
  C         1.8188994587        5.1947095351       29.2562814339
  C         4.8814273965       -0.3031111998       32.6313039837
  H         7.2071938722        2.4085763587       18.1899746294
  H         6.5846048875        3.1624737809       19.5856352541
  C         5.5798233483        1.2508776630       19.1085819293
  H        11.4771731497        3.1911249357       22.1758060306
  H        11.8669954015        3.5904515400       20.6558839835
  C        12.8326513207        1.7404407707       21.4053704107
  C         9.9503298857        7.8497049454       17.0094699469
  C        10.3379862680        5.6473606844       15.9792883877
  H         1.4055699267        6.2132631322       29.2211283455
  H         1.1757499614        4.6354060085       29.8770612470
  C         3.2426594204        4.9473059276       29.7526324977
  H         4.8586231697       -1.3619173921       32.4855590492
  C         4.6599596058        0.0711538949       33.9242439768
  H         5.1485312459        1.0558119967       20.0611425670
  H         5.8343669755        0.3233971887       18.6545083644
  C         4.5016476691        1.9127651302       18.2836159669
  H        12.5766687067        0.8931828353       22.0200508679
  H        13.1430893544        1.3541869098       20.3989036789
  C        13.9845537039        2.5536549198       21.9409460012
  N         9.6020199117        8.7756273101       17.9641739118
  C        10.2528659614        8.4226150923       15.8050233575
  C        10.6184426889        6.2275383117       14.7616107134
  H        10.3679164697        4.5850084288       16.1197656656
  H         3.2133219372        4.9068120052       30.8612217260
  H         3.5520850856        3.8715970403       29.5716228165
  H         3.9905050874        5.6871729661       29.5035094933
  S         4.4700544729        1.6485818858       34.4017469035
  C         4.5592724145       -0.9069966874       34.9985054509
  H         4.1073799323        2.8370446437       18.7798041184
  H         4.8636681721        2.0485494957       17.2587975612
  C         3.1626476569        1.1411348789       18.1580929131
  H        13.9975747270        2.4396417300       22.9940293408
  H        13.8613725592        3.6215726797       21.7297977246
  C        15.4096607785        2.1425232275       21.3278810658
  S         9.7013218207       10.3290173247       17.3442913546
  N        10.1783978121        9.8319869347       15.8572235603
  C        10.5910777367        7.6952487896       14.6578682080
  H        10.9833397156        5.6799173590       13.9242795972
  C         4.3861718435        1.1282055826       36.0326618241
  N         4.2476711454       -0.2258872996       36.1594396742
  O         4.7498881380       -2.1054055367       34.9033489962
  H         2.3567949525        1.7439158268       17.8833958297
  H         2.8795648375        0.8502173340       19.1478085236
  C         3.2477914322        0.0242837774       17.1261904206
  H        15.7518750065        1.0811309794       21.2687941671
  H        15.3009134978        2.4744012731       20.3161608510
  C        16.5465752245        2.9928341224       21.9433347657
  C        10.9121478424        8.4660476562       13.5109009719
  S         4.0554584531        2.2022856301       37.3518148386
  C         4.2306098891       -0.8517578548       37.5096910000
  H         3.1237658448        0.5305584583       16.1682815564
  H         4.2735460983       -0.2964576270       17.0362293853
  C         2.2547053250       -1.0776492649       17.2331879897
  H        16.0908424762        3.7938765935       22.4728726816
  H        17.2575920313        3.4319038557       21.1686893784
  C        17.3671542478        2.1992910563       22.9532735852
  H        10.8187895088        9.5012796730       13.6457446359
  C        11.3357446896        8.1083992991       12.2310713470
  H         3.5470515354       -0.4083635387       38.1573245574
  H         3.8487942254       -1.8573640025       37.3307554063
  C         5.7029386257       -1.0087747626       38.0453789274
  H         1.4064716888       -0.7942619578       16.6658242115
  H         1.8175556658       -1.0303824296       18.2026116542
  C         2.8041864615       -2.4677515581       17.0118509939
  H        17.4905598125        1.1940836937       22.5991220845
  H        18.3285131114        2.6924534961       23.0664995787
  C        16.6315380547        2.1155150650       24.2936040851
  S        11.8875864542        6.5976363077       11.6399296407
  C        11.3432540913        9.2863605928       11.1991575768
  H         6.3649177175       -0.9462689250       37.1924435076
  H         6.0107639890       -0.3929324837       38.9173135153
  H         5.7697911217       -2.0228443266       38.4779655623
  H         3.7799989395       -2.5037367702       17.5106157117
  H         2.8194236335       -2.7936769141       15.9285419650
  H         2.2692073703       -3.2015881123       17.6379945112
  H        15.8634235124        1.3062847507       24.2471242540
  H        16.1659423018        3.1164788233       24.3517480357
  H        17.3758589701        1.9185947868       25.0259511737
  C        12.3178270747        7.4244333907       10.1214271949
  N        11.9813810760        8.8016167554       10.1072360785
  O        10.7638950293       10.3732659583       11.3341245655
  S        13.0208252005        6.6410011625        8.6529085755
  C        12.0500332176        9.6691401270        8.9322047606
  H        12.0065075228       10.7009788503        9.3636072336
  H        13.0082295214        9.6290533956        8.3439391457
  C        10.8289734325        9.6258056404        8.0791161961
  H        10.5658946167        8.5530008469        8.1585869996
  H        10.0318841641       10.2701756432        8.4211788711
  H        11.0945589439        9.9426442366        7.0278735036
  H         2.4491253812        3.3922028983       12.5647080787
  C         2.8183642600        2.3844136109       12.5194654656
  H         2.1433948951        1.9285551976       13.3103800848
  C         2.7107065764        1.8151420287       11.0992152660
  C         4.2412503323        2.0718138906       12.9885741826
  C         3.6674637934        2.4491426509       10.0029679618
  H         1.7222852130        2.0648620895       10.6553155892
  H         2.7545588334        0.7255174018       11.0509705207
  H         4.3788658117        2.2821471424       13.9785772670
  H         4.9510301629        2.7047059628       12.4024029339
  H         4.4840791074        1.0716134329       12.8604021574
  C         4.6666605241        1.4286571268        9.4812024107
  H         3.1006917536        2.7939262544        9.1252746533
  H         4.1656690251        3.2360766546       10.4856568568
  C         5.3533309829        1.6743588410        8.1944354931
  H         4.1105343390        0.5079375558        9.1813426176
  H         5.3366017528        1.2046839514       10.3204666998
  C         6.6088991118        2.6084623735        8.2058363882
  H         4.6653962738        1.9833567722        7.3591012051
  H         5.7243928676        0.7724232327        7.8145184304
  C         7.9117449445        1.9672708654        8.6793439553
  H         6.8555551573        2.8748687094        7.1971292796
  H         6.4629495713        3.4633653073        8.8930243671
  C         9.1254254944        2.8762340781        8.9477618919
  H         8.2487464799        1.1801429701        8.0526684518
  H         7.6673146764        1.4125752078        9.5659568703
  C         8.7454248519        4.2106191370        9.6981899904
  C         9.6513030161        3.6832256633        7.8209863822
  C        10.3103025262        2.1915525866        9.7982950464
  C         9.0124511689        5.3289895057        8.9410032650
  C         8.1887368288        4.5114809127       10.9765127917
  C         9.6304549160        5.0356853780        7.7637215813
  C        10.0810214051        3.0703498693        6.6178731628
  H         9.8797520810        1.7692812186       10.6996562028
  H        10.6134968198        1.3697477799        9.1899919406
  C        11.4872390078        3.1477808421       10.1682409890
  S         8.5622076342        6.7793691085        9.6673083643
  C         8.1151969889        5.8877262725       11.1118152649
  H         7.9533405405        3.6719928829       11.5664193395
  C        10.0080930400        5.6440272181        6.6156702895
  H        10.0602407334        2.0134643181        6.5410281300
  C        10.3895209253        3.6753424868        5.4667594928
  H        11.0257763457        4.0019074356       10.7221673630
  H        11.9458055936        3.4729872916        9.2145092694
  C        12.5721539665        2.6104249431       11.1383932142
  C         7.6310000606        6.4964726293       12.3818805056
  C        10.4053641444        4.9743364697        5.4206976248
  H         9.7781446988        6.6870668409        6.5160924202
  C        10.8113939489        3.2606288386        4.2356022650
  H        13.3935325612        3.2412264847       11.1654652964
  H        12.8002563550        1.6011723799       10.8436844497
  C        12.0663649916        2.6704045419       12.6175755407
  C         7.6522319584        7.8810485774       12.6431959000
  C         7.2613934110        5.6185052330       13.4892544493
  C        10.7250566549        5.6620937995        4.1475976368
  C        10.8558449710        4.3141728224        3.4067174561
  S        11.1360362238        1.7335681250        3.5869065411
  H        11.9321035607        3.7107901817       12.9083261615
  H        11.0372849100        2.1822773824       12.7009607976
  C        13.0081669310        2.1190837421       13.6301059218
  N         8.0291305292        8.8383107222       11.6964634669
  C         7.2932573805        8.4110728983       13.8493113388
  C         6.9712218762        6.1536673876       14.7688674885
  H         7.0883448253        4.5822589089       13.4332438582
  C        12.0423209738        6.4494937583        4.3415609292
  C         9.4535469693        6.4817589078        3.6596856292
  C        11.2150914041        3.8982523954        2.1264688411
  C        11.3356478076        2.5317592369        2.0610479741
  H        13.7965026363        2.8575970012       13.5225884954
  H        13.4161074024        1.2030947579       13.4018163507
  C        12.3984010540        2.2099044104       15.0446016466
  S         7.8065233689       10.3202994521       12.3444233273
  N         7.3181673215        9.8181835501       13.8292971556
  C         6.9863008843        7.6179255993       14.9734682173
  H         6.5993697179        5.4236467513       15.5254910388
  H        11.8742086102        7.2016157103        5.0531271712
  H        12.2391235609        6.9578133748        3.3596922795
  C        13.3725630698        5.5535063031        4.6558342270
  H         9.4715911079        7.4862057274        4.0954807171
  H         9.5074398719        6.7204913051        2.6157979919
  C         8.0926520664        5.7655581591        3.6494799726
  H        11.2930287496        4.6543457929        1.3782137564
  C        11.6443096460        1.8351019867        0.8170580887
  H        12.1068777346        3.2380642688       15.1761114391
  H        11.6999660488        1.4965812836       15.3533448016
  C        13.4134292034        2.1608230508       16.2310542573
  C         6.6645625602        8.3292980373       16.1778758105
  H        13.1412794081        4.8609157945        5.4965236681
  H        13.6743170893        4.8766717583        3.8762782265
  C        14.4425216609        6.4017628494        5.2571544442
  H         7.7832000674        5.5442111635        4.6649201911
  H         8.3233772938        4.7341420837        3.2535351888
  C         7.0415064447        6.5440772240        2.8348506788
  C        11.8367838227        0.4265582525        0.6348142892
  C        12.0381097738        2.6451767070       -0.4350828583
  H        14.1850140348        2.8914529330       16.0851221282
  H        13.8750028637        1.1494633778       16.1637004324
  C        12.9592689776        2.5570777885       17.6114152826
  H         6.6528751064        9.4016903028       16.1129491839
  C         6.3951477934        7.8622047654       17.4550378198
  H        14.0689830954        6.7814949240        6.1650902376
  H        14.7415564205        7.1975628568        4.5875217182
  C        15.5815193938        5.4534553862        5.6239519283
  H         7.2418211315        7.6635633845        2.8556538624
  H         7.2395118140        6.1761066526        1.8024233729
  C         5.6246000283        6.1986803160        3.2424463375
  N        11.6130540795       -0.5346322519        1.6117358150
  C        12.2109709100       -0.1706761337       -0.5493537779
  C        12.4541975862        1.9821780116       -1.6292978174
  H        12.0033539416        3.7304562911       -0.4797688101
  H        11.8523199636        2.5182740623       17.7917408703
  H        13.2678800074        3.5975085230       17.7415336459
  H        13.4027912541        1.8684574434       18.2892414508
  S         6.1161049030        6.2408675383       17.9310097460
  C         6.1773791378        8.8376760532       18.5810210066
  H        15.2328219647        4.5609804583        6.1298139771
  H        15.9195374167        5.0811752111        4.6324602324
  C        16.7122367654        6.1268585858        6.3500713924
  H         5.4434920622        6.9011400463        3.9922131404
  H         5.6824143031        5.1825290890        3.5581373694
  C         4.6653394461        6.4020605093        2.0878815417
  S        11.7349125340       -2.0057167570        1.0577888852
  N        12.1583374920       -1.5953820903       -0.4664645020
  C        12.5026475255        0.5141814985       -1.7503058585
  H        12.6247918091        2.6157339001       -2.5086941365
  C         5.8106546241        6.9075402474       19.5663517236
  N         5.8383873147        8.2648068541       19.7271951333
  O         6.1028322298       10.0129098441       18.3538730346
  H        17.2787730147        6.7837802225        5.7035404675
  H        16.3680272706        6.7168558714        7.2049540068
  C        17.5915765515        5.1752966847        7.0584474973
  H         5.1686646858        6.3339772493        1.1531617295
  H         3.9105935144        5.6123505592        2.1626762455
  C         4.0132408163        7.7251408921        2.2018698615
  C        12.7860657914       -0.2740999374       -2.9075249267
  S         5.5691249589        5.8270917073       20.8802464376
  C         5.8103767057        8.8333619029       21.0134589460
  H        16.9945346275        4.4942242471        7.7128122874
  H        18.1088333508        4.5260726054        6.3166760669
  C        18.7037252871        5.9279335088        7.8629654574
  H         3.4219382970        7.9336768190        3.1665543995
  H         3.2348955414        7.5446034068        1.4995119847
  C         4.9119466219        8.8711222899        1.7333952883
  H        12.5973466357       -1.3432704950       -2.9215735211
  C        13.3384464131        0.1470456036       -4.0298874890
  H         5.1163378680        8.3699632862       21.6925223077
  H         5.4596434864        9.8817937275       20.9795862698
  C         7.1834037103        8.8626642654       21.7020505035
  H        18.8798450595        5.3739614367        8.8035427187
  H        18.5243484481        6.9663232933        8.0853311377
  C        19.9579968231        5.9353224501        6.9948515751
  H         5.6666318478        9.0603950244        2.5150775868
  H         5.4828181175        8.6344597518        0.7934826530
  C         4.0361593405       10.0581583589        1.3869301861
  S        13.9481465214        1.7162213502       -4.4020414689
  C        13.2655184186       -0.8115221332       -5.1452418124
  H         8.0161946161        9.1993020504       21.0525482301
  H         7.5849402005        7.8711782797       21.9368723843
  H         7.3133037305        9.5889506731       22.6013916711
  H        19.8455037026        6.4978208382        6.1178536162
  H        20.7500767833        6.2974486337        7.6489844072
  H        20.2919472148        4.9338232860        6.7036131855
  H         3.6526902421       10.4756421438        2.2780584451
  H         4.4927211002       10.9526760232        0.9612615196
  H         3.1888081782        9.8216934815        0.7442143206
  C        14.1700895332        1.0551344100       -6.0503340072
  N        13.8372026320       -0.2602485045       -6.2000361516
  O        12.7820633627       -1.9057148029       -5.1162388824
  S        14.7683508691        1.9971022560       -7.4901386761
  C        14.0071463596       -0.9951920045       -7.4412437247
  H        14.1849830167       -2.0221969955       -7.2671835598
  H        14.9154400269       -0.8231573104       -8.0404130564
  C        12.8143389832       -0.7905369446       -8.3601378745
  H        12.7842612077       -1.4436670368       -9.2488200911
  H        12.8364375329        0.2265040099       -8.7196661872
  H        11.8798097577       -0.9197208319       -7.7880229089
