352
 i =    40600, time =    20300.000, E =       100.1621778059
  H        10.0734752429        4.8559734349       31.5207109335
  C        10.0958787655        5.7618174695       32.0567888380
  H         9.0053378427        5.9952484282       32.0716809618
  C        11.0193872671        6.6599491350       31.2618869367
  C        10.5106037515        5.4911890714       33.4640604454
  C        11.2955321519        6.1169432975       29.8060997989
  H        10.3974485757        7.5680668814       31.1687181729
  H        12.0233314267        6.8065273534       31.6626119883
  H        10.2211040807        6.2250531714       34.1448872076
  H        10.0356105502        4.6504389470       33.9190730315
  H        11.5808382658        5.3730923902       33.5082284677
  C        10.1201273765        5.7903080324       28.9717828107
  H        11.8885092090        5.1764802819       29.8704586775
  H        11.8117713219        6.9150541786       29.1954479295
  C        10.6611826724        5.6615819887       27.4405155247
  H         9.5768771603        4.8628133277       29.1829666606
  H         9.3657775100        6.5891590271       29.0799668464
  C         9.6013812905        4.8818978457       26.6411860298
  H        11.5342074116        5.0347576357       27.4118021667
  H        10.9244744943        6.6813372086       27.0138095566
  C         8.3989226762        5.6971339882       26.2401048492
  H        10.1237448560        4.5443347341       25.8124332848
  H         9.2944256210        4.0257287410       27.2947510850
  C         7.2626925007        4.9993144980       25.5051214846
  H         7.9602086042        6.2781710286       27.1150828384
  H         8.8607437008        6.3402996684       25.4395285294
  C         6.9797115213        3.6731776667       26.2941855306
  C         7.6211772331        4.3060022864       24.2130336545
  C         6.0351697395        5.9617946885       25.5341726788
  C         7.1105760878        2.5841627033       25.4540805508
  C         6.5432685095        3.2932678527       27.6247761443
  C         7.5380381335        2.9410986441       24.1412769725
  C         7.9559601025        4.9400799509       23.0371265527
  H         6.3445572043        6.9977094141       25.2351926720
  H         5.6885055650        5.9437011751       26.5174641464
  C         4.8244834137        5.4587059613       24.7322056286
  S         6.8305605449        1.1231404818       26.3500470333
  C         6.3798591341        1.9633284172       27.7429766971
  H         6.3606673474        4.1162235226       28.3745979613
  C         7.8020353199        2.3202481376       22.9730707140
  H         8.1280477549        6.0233410839       22.9602083970
  C         8.3482646940        4.2999639117       21.9346760257
  H         5.0804576612        5.1078857751       23.7343081591
  H         4.5505770716        4.5388322620       25.2779768656
  C         3.6069334587        6.3339225097       24.6563485711
  C         5.7885425587        1.3417068587       28.9912407558
  C         8.3112057854        2.9276361999       21.8454907727
  H         7.8359923286        1.2505426930       22.9787844383
  C         8.7948341085        4.6671012584       20.7079920745
  H         2.8672457147        5.8216598522       23.9829927127
  H         3.7391624208        7.3269182597       24.1744381974
  C         2.9222468168        6.5421479781       25.9763461457
  C         5.7282183083       -0.0470691212       29.2530165949
  C         5.5646586744        2.2131097465       30.1935965140
  C         8.6835752152        2.2157631890       20.5649174163
  C         9.0936714348        3.5804555546       19.9316557837
  S         9.1411661377        6.1445184192       19.9621192936
  H         2.2212960589        7.3386334912       26.0178429837
  H         3.5831614866        6.9090226515       26.7282068979
  C         2.2254585633        5.2866185512       26.5545046617
  N         5.8344940917       -1.0456862005       28.2970296467
  C         5.4150179272       -0.6265133964       30.4734501020
  C         5.3664184326        1.6407578923       31.4455330379
  H         5.5910701367        3.2368548068       30.1706167250
  C         7.6037172013        1.3657981400       19.9188162973
  C        10.0021488577        1.3781809793       20.8842448773
  C         9.5392808045        3.9685402098       18.6529596894
  C         9.6115904055        5.3413779069       18.5441857404
  H         1.6865683178        4.8253915663       25.7014325878
  H         2.9901071426        4.6029610813       26.9138336350
  C         1.1629243950        5.4614176704       27.6199004331
  S         5.8826172617       -2.4736070986       28.9290208452
  N         5.5327786401       -2.0169221817       30.4698345246
  C         5.1763093585        0.1805584533       31.6414590965
  H         5.2523622036        2.3156612217       32.2909461502
  H         7.2073645115        0.6450661338       20.6836996786
  H         8.0797621314        0.6128594099       19.2976144953
  C         6.4612220400        2.1895916294       19.2846946086
  H        10.1789901134        0.9757867104       19.9154991113
  H         9.6016997618        0.6093533942       21.5435020938
  C        11.2161206809        2.1710574026       21.5318221541
  H         9.6590813320        3.2963040900       17.9142701227
  C         9.9583764675        6.0279836259       17.2465232821
  H         0.5069209951        4.5787269246       27.5959000210
  H         0.6265812473        6.3963260779       27.4371442615
  C         1.8695589228        5.4956178119       29.0132899032
  C         4.9537744256       -0.5121496412       32.8686865526
  H         6.9657450981        3.0625749019       18.8132431647
  H         5.8200668621        2.5434032160       20.0952283172
  C         5.7643365791        1.5360919363       18.1242827638
  H        11.1254269714        2.5195489319       22.5935776854
  H        11.4171869844        3.0595791373       20.9788495708
  C        12.6076690961        1.4693360381       21.4942735319
  C         9.9894167774        7.3800136409       17.0643334706
  C        10.3474321336        5.2517310897       16.0350238812
  H         2.1798462261        4.5127709772       29.3125240983
  H         2.7588059413        6.1712239013       29.0167252606
  C         0.9059256582        5.9974965755       30.0470983145
  H         5.2559625757       -1.5706190466       32.8839746994
  C         4.5212458039       -0.0607134725       34.1207714157
  H         5.8908978355        0.4846330140       18.1994404439
  H         6.2731208477        1.7995121478       17.2117092595
  C         4.3261264071        2.1601463525       17.8841632383
  H        12.5960959509        0.6788096446       22.2673509134
  H        12.6732274312        0.9662396469       20.5584127701
  C        13.7842968340        2.4842740396       21.7656958689
  N         9.6973684592        8.2591509611       18.1086302978
  C        10.2874951557        8.0289084180       15.8944880822
  C        10.6545667539        5.8305717861       14.8125179702
  H        10.4382329677        4.1364371239       16.0575651189
  H         1.1886596480        7.0179661597       30.5107811480
  H        -0.1209417159        5.8567057654       29.8316869580
  H         0.9480269095        5.3481223254       30.9275590180
  S         4.2082250749        1.5428180700       34.6378304566
  C         4.4081156846       -1.0603271739       35.2457127354
  H         4.3031342707        3.0969878267       18.4252608540
  H         4.0537099582        2.5235324751       16.8549067123
  C         3.2696227281        1.0677171162       18.2782633033
  H        13.5633131343        3.2244370481       22.5371198237
  H        13.9130941260        3.1068763238       20.8075794798
  C        15.0009213076        1.7408020213       22.2252934669
  S         9.8788188144        9.7926381438       17.6206050716
  N        10.1488542558        9.4003231050       16.0209566763
  C        10.6378644903        7.3138557901       14.6834691524
  H        10.9091371442        5.2643060657       13.9541060259
  C         3.8563197011        0.8091393903       36.2501830373
  N         3.9801297091       -0.4972452202       36.3894605448
  O         4.7286071610       -2.1711183302       35.0837902905
  H         2.2582605764        1.4114621298       18.5282802465
  H         3.6303178480        0.5953669704       19.1780579641
  C         2.9540866076       -0.0310016911       17.2998512037
  H        14.7212223490        0.8869440472       22.8870314448
  H        15.6294414082        1.3405933500       21.4330596437
  C        15.8509215519        2.6206033115       23.1150230867
  C        11.0140852406        8.0511234149       13.5273765657
  S         3.5547887903        1.6485258201       37.7816032239
  C         3.9504102750       -1.1678107942       37.7255495750
  H         2.3681724866        0.3751285055       16.5686802358
  H         3.8281537586       -0.3983421708       16.8198747988
  C         2.0773211996       -1.1883125320       17.9302172370
  H        15.1639854113        2.8106580134       23.9793199917
  H        15.9549555420        3.5935308278       22.6659847537
  C        17.1845694565        1.9928766871       23.5492765241
  H        10.7809902436        9.1022921868       13.5425811719
  C        11.4931016002        7.7068209727       12.2683319906
  H         3.0993643583       -0.7933513913       38.3755520867
  H         3.5578361534       -2.1479114266       37.4760340271
  C         5.3488247067       -1.2158029551       38.3448486093
  H         1.0728286299       -0.7337124560       18.0676598223
  H         2.2838566278       -1.4084793021       18.9659379278
  C         2.3013496159       -2.4846834306       17.1355817224
  H        17.6534048735        2.4569505440       24.4248940008
  H        16.9763145802        1.0217715353       23.8577403216
  C        18.2879638661        2.0491327433       22.5090315918
  S        12.0254404353        6.1498841672       11.7374454205
  C        11.6491719727        8.7612645758       11.2607645130
  H         5.7457317120       -0.3198843247       38.8492384041
  H         5.5163290315       -2.0659259903       38.9700845536
  H         5.9873787963       -1.4977722737       37.5184880254
  H         1.7014384994       -3.3116522527       17.5068154001
  H         3.3765261527       -2.6738895510       17.1719055106
  H         1.9127401036       -2.3503969976       16.0731781949
  H        19.2177867793        1.5875474703       22.8471431191
  H        18.3836623830        3.1269145033       22.0774657341
  H        17.9574138447        1.4584590636       21.6341353827
  C        12.3769168813        6.9692923161       10.2164960766
  N        12.1764818848        8.2718722822       10.1836018695
  O        11.3377763953        9.9696874015       11.4520378295
  S        13.2967737724        6.1580215965        8.9338603041
  C        12.2717020873        9.0474067638        8.9637228630
  H        12.4368437477       10.1431898858        9.1972560102
  H        12.9696295333        8.5621236110        8.3019989118
  C        10.9702370842        8.8586123407        8.1190199233
  H        10.8715941329        9.6886157223        7.4635326797
  H        10.9427771699        7.9314628062        7.5179254326
  H        10.1214976093        8.7397931551        8.8664807419
  H         5.6172747372        2.2091776588       12.3018286070
  C         4.7239280594        2.6633402319       12.5968947816
  H         5.0728953627        3.6697341018       12.5098613003
  C         3.6397161009        2.3314684554       11.5612963729
  C         4.3288911630        2.2086437338       14.0194879526
  C         4.0621196718        2.5523568389       10.1568559948
  H         2.7960344536        3.0340920475       11.6870710881
  H         3.2463536576        1.3194608832       11.7291982704
  H         3.8347397562        1.2138975564       14.0748781706
  H         3.6706975911        2.9672255022       14.4564528583
  H         5.1637714896        2.2558856079       14.7528008970
  C         4.6660678837        1.2334753631        9.6241587604
  H         3.2487642003        2.7972178765        9.5358630165
  H         4.6602448839        3.4993859126       10.1924387340
  C         5.4227230086        1.3729015389        8.3052752240
  H         3.9012944832        0.4700050241        9.4756792449
  H         5.3418994250        0.8057425292       10.3817120404
  C         6.7034002355        2.2211489360        8.5524780555
  H         4.8389995024        1.7225889358        7.4801426680
  H         5.7033518034        0.4029106894        7.9023957717
  C         7.9955817799        1.6453297407        9.2384921640
  H         7.0243418454        2.5892996390        7.6151475468
  H         6.4646757644        3.0906835361        9.1205632481
  C         9.2378161498        2.6171542931        9.1772625788
  H         8.2918761701        0.6863522055        8.8291342983
  H         7.7308324419        1.4421444813       10.3089483885
  C         8.7308977914        3.9046883689        9.8733390332
  C         9.6460696479        3.2900110682        7.9844050561
  C        10.3376956969        2.0031045751       10.0309145169
  C         8.9392953942        5.0155014202        9.0758135793
  C         8.2427398230        4.2306795106       11.1500425760
  C         9.4665481282        4.6815835922        7.8363322591
  C        10.1427842457        2.7240620034        6.8499045998
  H         9.9066933213        1.4979341654       10.8950511272
  H        10.8228360581        1.2265052663        9.5351881391
  C        11.5118828693        2.8814113058       10.3978596782
  S         8.6201555388        6.4687789809        9.9239591207
  C         8.1165933681        5.5668752660       11.3000820253
  H         7.8974032852        3.5021871289       11.8207495831
  C         9.7237098656        5.3161693955        6.6456019457
  H        10.3746940840        1.6787165331        6.8830935917
  C        10.3149660291        3.3188495373        5.6181615478
  H        11.1469858054        3.8684406464       10.6799152444
  H        12.0017658908        3.0783406447        9.4867074341
  C        12.5241349657        2.2414224273       11.3025400015
  C         7.8146542040        6.2459486519       12.5688386706
  C        10.1339451839        4.6545506141        5.4685567729
  H         9.6455441945        6.4023027734        6.5635339969
  C        10.6960044367        2.8889907610        4.3374391903
  H        13.5543066932        2.4529038430       10.9577265486
  H        12.4180814201        1.1269782984       11.2765710424
  C        12.3416253716        2.9064080046       12.6904765095
  C         7.7762146217        7.6916293714       12.7871354877
  C         7.5957872421        5.3480256400       13.6945083159
  C        10.5106252042        5.3465321131        4.1686115387
  C        10.8715915785        4.0057045224        3.4867976254
  S        11.0657536410        1.4059915650        3.5701472833
  H        13.1622121771        3.5463239570       12.6128187822
  H        11.3977789218        3.4691452165       12.8083361380
  C        12.3687823540        1.7901871999       13.7293617751
  N         8.0539864815        8.6302704035       11.8759928105
  C         7.4677892960        8.1569304992       14.0521738520
  C         7.2412198960        5.8857990013       14.9430427066
  H         7.7994394435        4.3350707206       13.5974544173
  C        11.7180340512        6.3110055010        4.3043931906
  C         9.2941644413        6.0872963103        3.5833572179
  C        11.2309908663        3.6272486149        2.1601038180
  C        11.3462980310        2.2595731813        2.0587400664
  H        13.2035610245        1.0990282518       13.4759898338
  H        11.3608573130        1.2772762262       13.6840750346
  C        12.5483204908        2.3452021142       15.1455364823
  S         7.9078654375       10.0890529943       12.5702270641
  N         7.3863007623        9.5285951405       14.0050240131
  C         7.1264284654        7.3426471618       15.1608400964
  H         7.1368423286        5.2889099069       15.8197108474
  H        11.5194895451        7.1016610536        5.0365252092
  H        11.9634125731        6.8243805434        3.3819271305
  C        12.9801268164        5.7017440649        4.8578867290
  H         9.1454960884        7.0153539313        4.1096276519
  H         9.5715743381        6.3215599632        2.5336705311
  C         7.9257653067        5.3185007920        3.3788164137
  H        11.3391276924        4.3091412422        1.3572849241
  C        11.6614470097        1.5129053696        0.7701255083
  H        13.5742621016        2.6068486935       15.3289293586
  H        11.9922587612        3.3347206411       15.1706558531
  C        11.9750879138        1.6004097318       16.3274109387
  C         6.8420656442        8.0252186610       16.3249346468
  H        12.7875669074        5.3776621529        5.8610824198
  H        13.3952340457        4.9040834744        4.2777276517
  C        13.9698135952        6.8129589262        4.9075624663
  H         7.4033142518        5.2297025481        4.3551416873
  H         8.1630714230        4.2991024593        3.0050079071
  C         7.0715402670        5.9183449766        2.3507403149
  C        11.7857027906        0.1051833192        0.6247540937
  C        11.9384447761        2.2397997194       -0.5142785564
  H        12.3734947780        0.5965964837       16.3534896400
  H        10.8946314193        1.4462277685       16.2587716761
  C        12.4835778827        2.3404278226       17.5522794182
  H         6.9926870086        9.1017858316       16.3913882927
  C         6.4639064057        7.6501733469       17.6077160801
  H        13.7380977400        7.4305426569        5.7560007076
  H        13.9045067662        7.4828738443        4.0614156133
  C        15.3930011976        6.2936645708        4.9373278897
  H         7.0253132445        6.9668992697        2.4056479167
  H         7.6328066837        5.8391260132        1.4359980294
  C         5.7271838320        5.2836643591        2.4508434865
  N        11.5223948218       -0.8035643247        1.6583933388
  C        11.9695261569       -0.5182143116       -0.6437258353
  C        12.0783228680        1.6526431180       -1.7592947249
  H        11.9691551737        3.3581082879       -0.4706683398
  H        13.5275244667        2.5652125756       17.5253174898
  H        12.4323238608        1.6634702662       18.4135191678
  H        11.8887014700        3.1784191721       17.8448861640
  S         5.9830280126        6.0720947739       18.1203311502
  C         6.3931112046        8.6809728501       18.6824786015
  H        15.7051958811        5.4765697479        4.2766374130
  H        15.9982929448        7.1329823214        4.5993597099
  C        15.8022574411        5.9100989936        6.4236131216
  H         5.4922136734        5.0124494778        3.4780437324
  H         5.7091529083        4.2934245469        1.9563757756
  C         4.4899789559        6.0657800523        1.8585947811
  S        11.6119258532       -2.2874890915        0.9991363351
  N        12.1317411773       -1.9473205614       -0.4934706353
  C        12.0581488133        0.1542164685       -1.8623565038
  H        12.4162359478        2.2470053587       -2.5730926460
  C         5.8275289898        6.7833834327       19.6914464771
  N         6.0224795947        8.1327307560       19.8546073873
  O         6.5767637018        9.8939540626       18.4295488555
  H        15.7959836341        6.8061206377        7.0035147818
  H        14.9663657942        5.2725982704        6.7839098267
  C        17.0525984833        5.0377302222        6.6929223070
  H         4.7912033384        6.2454399478        0.8464609547
  H         3.6373241060        5.4341105978        1.7396122276
  C         4.3429351932        7.4031283310        2.6340907714
  C        12.3766070771       -0.5837800062       -3.0361233090
  S         5.2953948713        5.9710319153       21.1007496125
  C         5.8396070485        8.9902107868       21.0768226949
  H        17.0582953177        4.9547050450        7.7508601234
  H        16.9257390737        4.0186818243        6.3140035188
  C        18.2283996171        5.7965933974        6.1562067761
  H         4.8726313340        7.2744668057        3.5895763835
  H         3.3424079180        7.4490396566        2.9888974701
  C         4.7230246457        8.7232520932        1.9113016958
  H        12.1317821965       -1.6658736636       -3.0424701413
  C        13.0112288161       -0.2844400585       -4.2266681575
  H         5.1713151099        8.3853885730       21.6917262954
  H         5.2544719395        9.8187897667       20.8208139527
  C         7.2146202505        9.2781811965       21.6768495772
  H        18.1911298224        6.8604588376        6.2502481584
  H        18.3026642985        5.5846333843        5.1082054692
  C        19.5103707006        5.2545097595        6.7017555095
  H         4.6059430119        9.4741921475        2.6909231436
  H         5.8140437056        8.7051702483        1.7319945840
  C         3.9258597826        9.1057813355        0.6449199951
  S        13.5499724320        1.2433171019       -4.8676118153
  C        13.2294035585       -1.3418932960       -5.3036817449
  H         7.4172839652        8.6369475185       22.5026610977
  H         7.3650441163       10.3143197206       21.8633287903
  H         7.9687162982        9.0642888976       20.9298668498
  H        19.7572948743        4.2399660139        6.4712343395
  H        20.4016086309        5.8290558758        6.4031183867
  H        19.4635092771        5.3129211328        7.7806813729
  H         4.1557346843       10.0323370542        0.1296889115
  H         4.0102852826        8.2567242582       -0.0299098591
  H         2.8782806218        9.2444580259        0.8942717346
  C        13.9313758138        0.4030580901       -6.4188502800
  N        13.6617139089       -0.8835056566       -6.4644132352
  O        13.0019875107       -2.5153198212       -5.1222498540
  S        14.5283975656        1.2455158265       -7.8030131381
  C        13.9827464085       -1.8540921611       -7.5430428522
  H        14.4642808124       -2.7270788703       -7.0806573162
  H        14.7894259628       -1.5137957638       -8.1967199481
  C        12.7469059627       -2.2810521905       -8.3912195032
  H        11.9188353911       -2.8058572165       -7.7922368746
  H        13.0380975654       -2.9621140022       -9.1696464472
  H        12.3167473872       -1.4355079825       -8.9701775509
