352
 i =   109800, time =    54900.000, E =        98.4886343404
  H        10.8073279526        4.8137840462       31.7789193810
  C        10.8963205167        5.8535831080       32.0187210571
  H         9.9232312975        6.2079537574       32.3201850447
  C        11.5518895793        6.5629159519       30.7922215029
  C        11.7585670293        5.8037268009       33.2920062068
  C        10.5112354010        6.6489818313       29.6386482381
  H        11.7804372739        7.5544655974       31.1389516302
  H        12.4548036329        6.1413447182       30.4975920717
  H        12.3260195809        6.6545281078       33.3990065070
  H        11.1780390004        5.6541576293       34.2316895461
  H        12.4634849280        4.9759727478       33.2898631604
  C        10.4940456965        5.3614395418       28.7823355834
  H        10.6650135524        7.5773803341       29.0294318378
  H         9.5173444499        6.7693341851       30.0181278076
  C        10.9157487274        5.5782558281       27.2909734247
  H        11.1418631323        4.6811883206       29.2143528236
  H         9.4880367602        4.8376043479       28.8986836042
  C         9.8627608377        5.0444737797       26.3817136122
  H        11.8172071186        5.0106998888       27.0647781178
  H        11.1254514114        6.5880516388       27.0372620165
  C         8.6761852586        5.9311632088       26.2233477976
  H        10.2689796273        4.7957809460       25.4429719491
  H         9.5935245811        4.0342632539       26.8500387163
  C         7.5087159182        5.2004600271       25.6205972018
  H         8.4241689765        6.3708351847       27.2530038681
  H         8.9141234844        6.8160852978       25.5281570458
  C         7.1815581655        3.8259337932       26.2507862082
  C         7.8284797136        4.4738848299       24.3316867891
  C         6.2794620488        6.0706345326       25.4998327782
  C         7.3038177896        2.6939748165       25.4530316965
  C         6.7475957815        3.4643443122       27.5310861333
  C         7.7935551152        3.1121780032       24.2444937351
  C         8.1259269735        5.0947462908       23.1232194131
  H         6.4981688606        7.0035322002       24.9679092219
  H         5.9320863611        6.2731271082       26.5367483493
  C         5.1075281914        5.2822288157       24.9015406843
  S         6.7177937211        1.3203678401       26.2187975366
  C         6.4767145010        2.1440284507       27.6887398192
  H         6.6997011583        4.2817652598       28.2801381808
  C         8.1568506909        2.5269030411       23.0289664960
  H         8.0952106526        6.1773492682       23.1614962314
  C         8.5259876167        4.5154611648       21.9683402086
  H         5.4454793403        4.9889735887       23.9015476176
  H         4.8244979914        4.4008844263       25.4830450685
  C         3.8307019791        6.0490077864       24.6375099792
  C         5.9572696793        1.4350205720       28.8569328168
  C         8.4716190574        3.2034790951       21.8244399179
  H         7.9189945737        1.4726272429       22.9015510365
  C         8.9923620333        5.0081738548       20.7779497218
  H         3.1733736611        5.5676066507       23.8112342257
  H         4.2007244972        6.9513301230       24.1903698447
  C         3.0960141905        6.4095942400       25.9109484309
  C         6.0187800010        0.0038609975       29.0227012593
  C         5.4688399249        2.2328017913       29.9916978387
  C         8.9041983623        2.5661008613       20.5326148659
  C         9.1657329101        3.9469020957       19.8637780222
  S         9.3556768027        6.5234153972       20.1740632955
  H         2.4133377199        7.2139596869       25.7272026113
  H         3.7832911832        6.6736626520       26.6813207696
  C         2.2603829629        5.2938807051       26.5799009199
  N         6.5797958367       -0.9335143952       28.1204217932
  C         5.6979216596       -0.5684245989       30.2218079111
  C         5.2250699913        1.6589093248       31.1921444971
  H         5.2916981636        3.2799780899       29.6948389027
  C         7.7955609920        1.7631484601       19.8539475611
  C        10.1776715796        1.8191939516       20.7870370012
  C         9.4520054664        4.4272168650       18.6102215221
  C         9.6792072175        5.8024253240       18.6388703948
  H         1.7941375683        4.6956728092       25.8100906464
  H         2.8254328432        4.4485108157       26.9631272301
  C         1.2359612705        5.7244797597       27.6525459130
  S         6.3613918610       -2.4304377431       28.8299884837
  N         5.8241691855       -1.8966674749       30.2612348262
  C         5.3450169130        0.1995645764       31.3862663331
  H         4.9031447057        2.2103874425       32.0705382674
  H         7.5313008440        0.9289705380       20.4495764564
  H         8.3070004710        1.2667178775       18.9609110019
  C         6.5846847052        2.5333765348       19.4232863112
  H        10.3428187694        1.1220805297       19.9862493605
  H        10.0484613165        1.1952722871       21.6746164445
  C        11.3815414534        2.6640775184       20.9289984841
  H         9.4043971449        3.7233840296       17.7817622018
  C        10.0670580303        6.5845523229       17.4264374571
  H         0.7286572665        4.8503157968       28.0585253079
  H         0.3627074778        6.3497112195       27.2073615481
  C         1.8754419566        6.4826587547       28.7880506547
  C         5.0195633458       -0.4769596513       32.6292442601
  H         6.7350765240        3.1933353512       18.5990417598
  H         6.2304219352        3.1069257341       20.3055904678
  C         5.4700412803        1.5250317673       19.0347531481
  H        11.1735733733        3.3466371766       21.7433737338
  H        11.5941173838        3.1974957915       20.0136090663
  C        12.6659515406        1.8952568703       21.2929921546
  C         9.9818207248        8.0391220916       17.3161196000
  C        10.4979168707        5.8767080773       16.2074538913
  H         2.1606429883        7.4570948200       28.3893302889
  H         1.1797975062        6.5722873437       29.5610392451
  C         3.0890930737        5.8647042955       29.4097114023
  H         5.0484520515       -1.5681525010       32.6087757708
  C         4.7901541812       -0.0773983515       33.9092385774
  H         5.0280494574        1.0005903342       19.8653179725
  H         5.8743403475        0.8416339087       18.2465004411
  C         4.3957302085        2.3192131245       18.2573671456
  H        12.5736771668        1.2297504070       22.1081847333
  H        12.9295643510        1.2099217574       20.4775322439
  C        13.9697263813        2.7812398928       21.4201120436
  N         9.6041514770        8.9466655105       18.3299747303
  C        10.4379301434        8.5977455203       16.1101202160
  C        10.6825165851        6.4825379545       14.9813276976
  H        10.6752165236        4.8241740865       16.1738232842
  H         3.5529483107        6.3595850724       30.2672494755
  H         2.9207250877        4.8109530725       29.6888300291
  H         3.9728644077        5.7073769445       28.7717560756
  S         4.4754578389        1.5342266253       34.4449244142
  C         4.7361655915       -1.0577284183       34.9666101503
  H         4.0579237971        3.2554643690       18.7169838605
  H         4.7294731100        2.5578639563       17.2458990093
  C         3.1434390697        1.5339336437       18.2594876369
  H        13.8109060493        3.5457612547       22.1370893803
  H        14.2206485486        3.2147313072       20.3916233526
  C        15.1854023900        1.9080947990       21.8487214722
  S         9.7568623514       10.4472723809       17.7019238358
  N        10.2597451464        9.9788844689       16.2082600052
  C        10.6659410790        7.9627184155       14.8966860768
  H        10.9636331110        5.8464823244       14.1321864270
  C         4.3707612942        0.8725312047       36.0454444336
  N         4.4602457172       -0.4859693812       36.1485723956
  O         4.9310105979       -2.2494656851       34.7966786708
  H         2.3896334313        1.9962157317       17.7279986230
  H         2.6924806827        1.4863789389       19.2591237106
  C         3.2160927913        0.0429848389       17.6869401983
  H        14.9251322091        1.0046143785       22.4801898610
  H        15.5136852180        1.3683527971       20.9545376949
  C        16.2468424252        2.7015779730       22.5513609483
  C        10.8306647483        8.7375252897       13.7172861012
  S         3.8705729348        1.8215641599       37.4830288236
  C         4.4200427336       -1.2836487488       37.4060468379
  H         3.9170833772        0.2157344355       16.8887684414
  H         3.6436278161       -0.5906902990       18.4238576381
  C         2.0047543929       -0.5551201676       16.9508283640
  H        15.8791170520        2.7765965262       23.5570750975
  H        16.2073644478        3.6937219036       22.1227692220
  C        17.5768707178        1.8973530177       22.4889807959
  H        10.8293166789        9.8342214303       13.8610388628
  C        11.3130192997        8.3661517554       12.4521275232
  H         3.5614621259       -0.9616439093       38.0295076025
  H         4.2503185287       -2.3026560402       37.1314990370
  C         5.7136045712       -1.2055540007       38.2432566472
  H         1.6541833574        0.0210831243       16.0418717396
  H         1.2578786651       -0.2606487923       17.7115797637
  C         2.0848535199       -2.0778706153       16.8452896812
  H        17.5476047675        1.0613518249       21.7912498707
  H        18.3086039513        2.6076857982       22.0265006148
  C        18.1365886555        1.4909260635       23.8450767015
  S        11.7822744749        6.7548562140       11.8609798545
  C        11.5397676301        9.4805370427       11.5062707819
  H         5.9174575788       -2.1703757002       38.7258725555
  H         6.6077952899       -0.9250562135       37.6190013898
  H         5.5983055443       -0.4667253198       39.0014615180
  H         1.7949687362       -2.6204609646       17.7630232851
  H         3.0467999374       -2.3210373178       16.3533393249
  H         1.3258425466       -2.3329754313       16.0557057055
  H        19.0721763856        0.9990118068       23.6688691589
  H        17.4548732315        0.8389575690       24.3349113454
  H        18.3198088925        2.3252261327       24.5063622100
  C        11.9214682324        7.5728853730       10.2893569549
  N        11.9914564073        8.9272024179       10.3570132455
  O        11.3493862579       10.6692516669       11.7872317485
  S        12.6283196914        6.8765471913        8.7776907080
  C        12.2280404976        9.8193293761        9.1923922010
  H        12.5030036255       10.8845582843        9.4885134182
  H        13.1067075573        9.5726206646        8.6045009869
  C        10.8781356479        9.9619161187        8.3721055235
  H        10.2363969619       10.7861225066        8.7448687480
  H        11.1222260384       10.1521679397        7.2878274537
  H        10.3008408198        9.0561443943        8.4434174035
  H         2.5014633682        3.1116665387       12.4411739975
  C         3.2610282947        2.3558794255       12.6923380992
  H         2.6148902219        1.4737182855       12.7318854270
  C         4.3783176930        2.3265904352       11.5897938052
  C         3.8817485905        2.4952581024       14.1023118119
  C         3.6897422344        2.1351632270       10.2590442945
  H         4.9508373525        1.4259287795       11.7329085543
  H         5.0759773624        3.1459856923       11.4295582501
  H         3.6300203561        3.4314162992       14.6396675954
  H         4.9495518959        2.3748282495       13.8590043400
  H         3.5650082468        1.6059237231       14.7257900803
  C         4.4362846918        1.1500734328        9.3528567478
  H         2.6638023265        1.7725287409       10.4782852776
  H         3.6126913603        3.1912676326        9.8449934711
  C         5.1758329642        1.9326240010        8.2247203559
  H         3.7664693610        0.5779856013        8.7962280615
  H         5.0971205987        0.4209667207        9.8029125653
  C         6.2954016909        2.8278762074        8.5767504954
  H         4.4777353296        2.4768605754        7.6900710909
  H         5.5472139875        1.3103063172        7.4340853295
  C         7.5928289968        2.1445071133        9.0646360403
  H         6.5059227073        3.3478692304        7.7183794817
  H         6.0320805100        3.5445714922        9.3258882512
  C         8.8353987571        3.0505360562        9.2489469001
  H         7.8385578873        1.3896705313        8.3539385924
  H         7.4204207943        1.5902265143        9.9261950774
  C         8.5117716736        4.3551634052        9.8702752920
  C         9.3023206049        3.7720518749        8.0153498521
  C         9.9515380469        2.2309746209        9.9546611925
  C         8.6425283134        5.4699735773        9.1004565123
  C         8.1427781445        4.7342681579       11.1941807111
  C         9.1732770018        5.0939631312        7.9006522105
  C         9.8175496618        3.1388593839        6.9022918269
  H         9.6039151955        1.7274536735       10.9309851861
  H        10.2223599347        1.4276167950        9.3221949142
  C        11.1691865624        3.0399341320       10.1800044465
  S         8.4002278343        6.9707946320        9.8984763754
  C         7.9296093951        6.0985708010       11.2942103458
  H         7.7672892438        3.9113004605       11.8436832599
  C         9.6232367295        5.7503531324        6.7509275193
  H         9.8817138889        2.0442747793        6.9460132755
  C        10.2682914484        3.7001196852        5.7822049965
  H        10.8744339047        3.9985046484       10.6154789087
  H        11.6991083970        3.2203475310        9.2795965936
  C        12.2272986316        2.5243151483       11.1652370678
  C         7.5867834751        6.6775021775       12.6303662018
  C        10.1413397942        5.0653038135        5.6441374593
  H         9.4550823568        6.8207377240        6.6953107098
  C        10.8527647476        3.3088871896        4.5895250360
  H        13.1748653726        3.1299186618       11.1634366526
  H        12.6257715481        1.7003420928       10.6672493792
  C        11.7731855452        2.4392734151       12.5457081804
  C         7.5552637946        8.0688682310       12.9252642539
  C         7.3037131002        5.8347560675       13.8209172104
  C        10.6220025132        5.7038402113        4.3754439979
  C        10.9622161863        4.3398049119        3.6886699250
  S        11.2567891290        1.7766941868        3.9615584624
  H        11.2459811380        3.3417283597       12.8014492366
  H        11.1193898062        1.6456866971       12.5760793631
  C        12.9322036758        2.1609938276       13.6143828196
  N         7.6888958629        9.0532600756       11.9506641088
  C         7.3971310688        8.6067535847       14.1689300833
  C         6.9818142511        6.3899393088       15.0948744257
  H         7.3316429923        4.7623397585       13.7378886088
  C        11.9035679298        6.5326047490        4.6677566165
  C         9.4478261510        6.6108708637        3.7416896251
  C        11.4954136604        3.9704066369        2.4497911247
  C        11.5837045290        2.6200460771        2.4651759848
  H        13.7309162635        2.8414037456       13.4934456533
  H        13.3819537298        1.1686523839       13.3670728861
  C        12.3965562455        2.0267693582       15.1091844074
  S         7.8825736773       10.4857993923       12.7145791839
  N         7.6173228559        9.9698948364       14.2002626162
  C         7.0913351459        7.8717392974       15.3006719756
  H         6.8413001938        5.7600449346       15.9641606022
  H        11.7787619570        7.2388131344        5.4870286651
  H        12.1614865490        7.1392393726        3.7795456812
  C        13.2029617449        5.8088526294        5.0105348452
  H         9.1863151604        7.4390278240        4.3678989073
  H         9.8844408730        7.0670673784        2.8499193840
  C         8.1919501581        5.7854243253        3.3485161992
  H        11.6386708421        4.6486960547        1.6044816146
  C        11.8156657175        1.7498994303        1.2507497053
  H        11.9485399461        2.9860751993       15.4284960605
  H        11.4809288094        1.3978100261       15.1858624935
  C        13.4413261913        1.9455416440       16.2072186182
  C         6.8140232037        8.5259292063       16.5790299794
  H        13.0074396322        5.1609360069        5.8728481941
  H        13.3737224731        5.2060623477        4.1485428324
  C        14.4872723344        6.6507812422        5.2072435741
  H         7.9141657727        5.2155473672        4.2101244514
  H         8.5251296678        5.0435345190        2.6254006333
  C         6.9961943419        6.6481685842        2.8303752518
  C        11.8815920267        0.3265147787        1.1906781038
  C        12.1925039911        2.4018159283        0.0049644951
  H        14.3732279828        1.9452102455       15.7309728802
  H        13.4138333539        0.9890938807       16.6682773963
  C        13.3325498071        2.9767435379       17.3476529103
  H         6.8933767738        9.6240619193       16.5665507660
  C         6.5654899398        8.0609643320       17.8627594262
  H        14.2708033608        7.3075182621        6.0621683137
  H        14.5389330254        7.2296651080        4.3099064868
  C        15.7456922874        5.9091123784        5.3418645286
  H         6.6627564154        7.3526937810        3.6257061010
  H         7.3434552943        7.2539436435        2.0624439316
  C         5.8682962127        5.9185096180        2.0966728269
  N        11.6460514845       -0.5219458769        2.1967981933
  C        12.0933460809       -0.3518815602       -0.0223876444
  C        12.4177143336        1.7448744762       -1.1836876658
  H        12.1605218589        3.4687109029       -0.0247802273
  H        12.5199304352        3.7181667950       17.2666356364
  H        14.2697324920        3.3914670316       17.6885690159
  H        13.1968173058        2.3575193974       18.2186925209
  S         6.2723322103        6.3933235742       18.3506082387
  C         6.4959971909        9.0700138997       18.9951538646
  H        15.4785867782        4.8191671252        5.4011042251
  H        16.4232375897        5.9827454545        4.4337940062
  C        16.4955178639        6.3688980903        6.5919848301
  H         5.4719565719        5.1740999428        2.8295566027
  H         6.2801370845        5.4125066573        1.2360069100
  C         4.6551941261        6.7920805639        1.8083194511
  S        11.6228472087       -2.0672577382        1.7100027190
  N        11.9783252318       -1.7389526838        0.1196848807
  C        12.4523672229        0.2561105430       -1.2780713962
  H        12.6793579170        2.3321561964       -2.0849034314
  C         5.9888560190        7.0478806856       19.9062401422
  N         6.1719275423        8.3949569160       20.1091891453
  O         6.5156278507       10.2632792636       18.8213274245
  H        16.8327807598        7.3596116842        6.5183450120
  H        15.7659505703        6.2776307204        7.3639474188
  C        17.6712386326        5.5718376998        7.1260731126
  H         3.7616723657        6.2009692141        1.7370181718
  H         4.5653249059        7.4363752013        2.7174809100
  C         4.9890718710        7.6640633814        0.5355706390
  C        12.5970170064       -0.4643487252       -2.5099886434
  S         5.6178150671        6.0130380769       21.2580021980
  C         6.1766877985        9.1257385055       21.3666779370
  H        17.4029455863        5.1059954507        8.1042279275
  H        17.7813900225        4.6534969357        6.5091021405
  C        18.9632509316        6.3444714244        7.2637882115
  H         4.8044335550        7.0615235377       -0.3631834658
  H         6.0364956982        8.0706519066        0.4169629880
  C         4.0143410882        8.8154369854        0.4645118406
  H        12.1254553830       -1.4678950824       -2.4184996833
  C        13.1659681525       -0.1022023224       -3.7018950790
  H         5.5791515319        8.5683109561       22.0855403542
  H         5.7796654673       10.0828645690       21.4007209588
  C         7.6602726215        9.2901506443       21.8432728645
  H        19.4446506548        6.0463164621        8.2079596550
  H        18.8745657153        7.3996707773        7.3327848922
  C        20.0295958845        6.0849520893        6.2411725737
  H         3.7870173087        9.0107487913       -0.5255225968
  H         3.1806239807        8.3519173223        0.9711987674
  C         4.5565874187       10.1004513948        0.9576854679
  S        13.9433607414        1.3516702024       -4.2787861759
  C        13.1723236000       -1.2136007293       -4.6975019237
  H         8.3252118018        9.2314031717       20.9601006791
  H         7.8793768311        8.4020658940       22.4386173857
  H         8.0323859836       10.2393594140       22.2708205877
  H        19.7710703273        6.6704868146        5.3111276995
  H        20.8855594671        6.4741752352        6.7803547873
  H        20.1289609884        5.0196235393        6.0555457104
  H         5.5007320606        9.9116070300        1.4177997862
  H         4.8182775973       10.7302294955        0.0689764809
  H         3.8791352659       10.6446455480        1.6359712062
  C        14.2596473907        0.4927960929       -5.7855543227
  N        13.8767592822       -0.7874017842       -5.7680024399
  O        12.7892727550       -2.3795649834       -4.4963929290
  S        14.6649262426        1.2206762839       -7.2685777816
  C        14.0150612612       -1.7687719897       -6.8723930085
  H        14.2623516186       -2.8424002294       -6.6388663370
  H        14.9080098370       -1.4840246513       -7.3328220777
  C        12.8068001048       -1.7958330502       -7.7919934570
  H        12.4797277946       -2.8153170487       -7.7945297046
  H        13.0944988574       -1.3421107312       -8.7458585882
  H        11.9424426613       -1.2624380102       -7.5173232309
