352
 i =    93000, time =    46500.000, E =        99.6760725154
  H        11.7878891367        6.9201362150       32.1454475682
  C        11.3539850188        5.9047980252       32.2148538087
  H        12.1467981537        5.2763882080       31.7687262832
  C        10.1848508829        5.6472113890       31.2390456444
  C        11.0232076996        5.4807315850       33.6406359021
  C        10.8637609121        5.8272521350       29.8323630793
  H         9.8153504631        4.6775072395       31.3369659478
  H         9.4153236385        6.3844167453       31.3633546814
  H        11.8608990134        5.1318184465       34.1571865065
  H        10.4796450285        6.1934540099       34.2748017215
  H        10.4211776777        4.6212274541       33.4766410684
  C         9.7841046085        5.8194117311       28.7832095114
  H        11.6576031584        5.1602580500       29.5990606627
  H        11.3324050447        6.8408034227       29.7736345774
  C        10.3890992497        5.7299580804       27.4524285077
  H         9.1919127025        4.9225030889       28.8176431219
  H         9.1654359043        6.7008727951       28.9842567411
  C         9.3141270112        5.2452184263       26.3393315818
  H        11.1723937387        5.0120041646       27.5470671058
  H        10.8144032488        6.6939033302       27.1674253195
  C         8.0552788992        6.0916798337       26.1364946301
  H         9.8515777339        5.1469025094       25.3683540718
  H         9.0169124659        4.2243385809       26.5378874126
  C         6.8787017918        5.2775107922       25.4412463072
  H         7.5795096512        6.4002076699       27.0167219473
  H         8.3867034022        6.9218415339       25.5721543688
  C         6.5726736083        3.9318809701       26.0733884017
  C         7.3722133130        4.5970524550       24.1953933748
  C         5.5732297045        6.0942965142       25.3202512098
  C         6.8669688159        2.8110203809       25.3445676977
  C         6.0735669983        3.5587767526       27.3610376243
  C         7.4042756954        3.2518422719       24.1169283618
  C         8.0561439554        5.1544317988       23.1028979890
  H         5.7463336195        7.0515805451       24.7326437733
  H         5.5294604819        6.4146177835       26.3894473336
  C         4.3194437806        5.4084895888       24.6972710081
  S         6.5019496664        1.3167773368       26.1215617331
  C         5.9480707086        2.1704726422       27.5757870090
  H         5.7167115089        4.3812677265       27.9946527147
  C         7.9351938131        2.5735082424       23.0330484991
  H         8.1892737386        6.2705055417       23.1182833775
  C         8.5331356164        4.5069764692       21.9899113672
  H         4.5345643773        5.2952219776       23.6357100048
  H         4.0994164291        4.4084802026       25.0923067771
  C         3.1818056733        6.3970478650       24.8661477090
  C         5.5074224623        1.4218497366       28.9163305325
  C         8.4493788743        3.1908346601       21.9270173193
  H         7.7336763345        1.5044406102       23.0075098303
  C         9.0754876344        4.9123111019       20.7849483738
  H         2.3919966877        6.0390518440       24.1665569867
  H         3.5512931559        7.3828230933       24.5320803344
  C         2.7192507774        6.5498168067       26.2940173597
  C         5.7650418145        0.0580304806       29.2362147800
  C         4.8956569833        2.2514363864       29.9497077357
  C         8.9750424379        2.4741054016       20.6648614295
  C         9.2639695076        3.8241822917       19.9824410693
  S         9.3541247973        6.4247476463       20.0471414791
  H         1.8965753159        7.2877825837       26.3121299805
  H         3.5420012816        6.9348090983       26.8799615239
  C         2.2317640433        5.1776159466       26.8072591924
  N         6.3498791804       -0.8113827058       28.3811330833
  C         5.4058984701       -0.5131521534       30.4648996406
  C         4.6222128619        1.7458959803       31.2617296832
  H         4.3515820489        3.0987918611       29.6157375269
  C         7.8634286029        1.6753527932       19.9314954666
  C        10.1967942658        1.6279339249       20.9841729199
  C         9.6249021726        4.2438697340       18.6765511259
  C         9.5877735803        5.5987648284       18.5887056000
  H         1.8053600714        4.4960722668       26.0207063882
  H         3.1076211281        4.5482569678       27.1061489501
  C         1.1407435299        5.2381746439       27.9209687792
  S         6.3603611404       -2.2926216945       29.0754022227
  N         5.5429159724       -1.9082043771       30.4006119461
  C         4.8922470455        0.3045254451       31.5302169914
  H         4.1397728373        2.3972936138       32.0063163455
  H         7.5859774057        0.8214724799       20.5136081842
  H         8.3726786295        1.2490341999       19.0068155806
  C         6.5296730732        2.5032101791       19.6000052477
  H        10.6024985549        1.1302296691       20.1350139148
  H         9.8157733063        0.8906395647       21.7284637969
  C        11.4780379001        2.3133144503       21.5449258373
  H         9.6105467529        3.4867124948       17.8821754014
  C         9.7537063229        6.2925896351       17.2659783853
  H         0.6293020374        4.2282900896       28.0190058860
  H         0.3313092677        5.9151992378       27.7487714695
  C         1.7909058483        5.5800917716       29.2756452233
  C         4.7163064008       -0.2501036814       32.8008422553
  H         6.6356938584        3.5381158254       19.8088413213
  H         5.7045652669        2.1607646572       20.3131007645
  C         6.0760841055        2.4096356983       18.1553087814
  H        11.2421903084        3.0510518708       22.2732549176
  H        11.9273853829        2.9134621050       20.7817109034
  C        12.5572009533        1.3962752278       22.1117347003
  C         9.8450864157        7.7179004245       17.1351954003
  C         9.9730377302        5.5467536928       15.9648949153
  H         2.6858832199        5.0319850194       29.5406120211
  H         2.0234026005        6.6073759899       29.1765935571
  C         0.7491836383        5.4187881761       30.4101785038
  H         4.8292041155       -1.3501803997       32.7912054288
  C         4.5797232831        0.2225404943       34.0995581613
  H         6.1561524618        1.3949501825       17.7366170453
  H         6.7559355658        2.9160302392       17.4550799830
  C         4.6333564389        2.9276717919       18.0267385150
  H        12.1628436751        0.7745510184       22.8973038182
  H        12.9590528279        0.6776277291       21.3770367344
  C        13.6371665538        2.2845681127       22.7320656638
  N         9.7566362293        8.6180379806       18.1654139902
  C        10.1339830366        8.3611775218       15.9290423166
  C        10.2293570455        6.1741343876       14.8065784091
  H         9.9220874478        4.4226728002       16.0145165832
  H         0.4742361853        6.4038437966       30.7098506333
  H        -0.1382074731        4.9288893756       30.1127420733
  H         1.0504830452        4.7780217447       31.1473240354
  S         4.4310430155        1.8420088427       34.6680834108
  C         4.5466910661       -0.8178599148       35.1169127634
  H         4.2673721523        3.4286580444       18.9410294545
  H         4.6272544898        3.6240751523       17.1433785042
  C         3.6728466422        1.8779717107       17.6901087929
  H        13.1583027784        3.0569056551       23.3391597667
  H        14.1124911462        2.6806676056       21.8431768478
  C        14.5126205894        1.4013295580       23.5615235850
  S         9.9511032239       10.1611949258       17.6697617357
  N        10.2694991260        9.7776119622       16.1484831172
  C        10.4289158804        7.6326849846       14.7533244496
  H        10.3460460188        5.6021884607       13.9210079600
  C         4.2328016967        1.1234201335       36.2741155586
  N         4.2229045240       -0.2413077547       36.2946933672
  O         4.7413418640       -2.0057021587       34.9585169036
  H         3.8459480006        1.4614627658       16.6635040274
  H         2.7461502368        2.4420879573       17.5614493139
  C         3.5651245097        0.7208095990       18.6649151141
  H        13.9817160676        1.0637502342       24.3959914043
  H        14.5767874084        0.4547661626       23.0536007700
  C        15.7920209028        1.9363103578       24.1151636146
  C        10.9875879768        8.3066700364       13.6782462003
  S         3.7863989418        1.9801447102       37.6743068163
  C         4.2902521698       -0.9544911934       37.5712348753
  H         4.5140637828        0.2466539964       18.8908870610
  H         3.1073357164        1.0451751015       19.5846084225
  C         2.5536530667       -0.3266868071       18.1627345476
  H        16.2030271696        1.1967008586       24.8468286701
  H        15.6365634548        2.8190188454       24.7167070301
  C        16.7847936300        2.2466808697       22.9962616201
  H        10.7262530522        9.3587660234       13.7079484244
  C        11.4957538124        7.9803475075       12.4426171137
  H         3.5797091400       -0.5685967278       38.3210259652
  H         3.8793089072       -1.9719416595       37.5095669342
  C         5.7485006196       -0.9254853180       38.0002531291
  H         2.7306512367       -0.5108915729       17.0520578986
  H         1.5071881043       -0.0319958329       18.1823896298
  C         2.6403759686       -1.7038898556       18.8292264362
  H        16.2986048523        2.0374954241       22.0348117508
  H        16.8532057747        3.3302675967       22.9710100427
  C        18.1638575896        1.5809340742       23.3484041399
  S        11.8657636488        6.4184384885       11.8725113880
  C        11.7114687309        9.1024968801       11.5156303973
  H         5.9197422390       -1.7222269328       38.6746484902
  H         6.3320706057       -1.0233661808       37.1059010682
  H         6.0276214185        0.0021498537       38.5937341691
  H         3.2542359077       -2.4116928507       18.2001000411
  H         1.6919671489       -2.1370500717       19.0638003911
  H         2.9996133725       -1.6432258511       19.8397107405
  H        18.3729707104        1.9311528921       24.3591211970
  H        19.1058629937        1.9114019838       22.8728196707
  H        18.1294389906        0.4633522321       23.5346756657
  C        12.4014457604        7.3412306425       10.4214785826
  N        12.2838421923        8.6444561516       10.3988308499
  O        11.3800260922       10.2379695615       11.6710974722
  S        12.8348425061        6.4119506039        8.9664962746
  C        12.3225540265        9.4101296005        9.1443133775
  H        12.5139704200       10.4890119205        9.3322692369
  H        13.0973320355        9.0082907226        8.5437072672
  C        10.9967379512        9.2724017894        8.4182078200
  H        10.7182576691        8.2167689964        8.3769719629
  H        10.1944555118        9.7820772151        8.9559616916
  H        10.9940880629        9.6732284122        7.4246331756
  H         4.3757515564        1.7988784521       12.6833686414
  C         3.6596058014        2.5723295071       12.4821897158
  H         4.1835227836        3.4882746796       12.4297881690
  C         2.8196634233        2.4344110014       11.1794541458
  C         2.7632467785        2.6152733281       13.7173002186
  C         3.6931462853        2.5224450729        9.9538554780
  H         1.9338228945        3.1654280590       11.2414702184
  H         2.4179599452        1.4860814013       11.2789167606
  H         2.2089034854        3.5812212487       13.7765203848
  H         3.3465624999        2.5784615525       14.6910230988
  H         2.1085343127        1.7163331418       13.7560385629
  C         4.6506004671        1.3079565221        9.7857492824
  H         3.0386933876        2.4310602487        9.1725600049
  H         4.2489565655        3.4875484408        9.8670464965
  C         5.3613465252        1.5328274451        8.5232547492
  H         4.2228282841        0.3624771741        9.7669878938
  H         5.3589642000        1.2481060423       10.6273064179
  C         6.5493074557        2.5303407482        8.7312433825
  H         4.6620883284        2.0334839605        7.8328307675
  H         5.5284520440        0.6446550727        7.9319697993
  C         7.8574173618        1.8015388419        9.0534963115
  H         6.7326474158        3.0876288272        7.7948796481
  H         6.3580416799        3.2785884972        9.4460322129
  C         9.0957967244        2.6898725985        9.3560597056
  H         8.1349279859        1.0816902709        8.3114311059
  H         7.6047429492        1.1617042269        9.8893975630
  C         8.7571593561        4.0053902733       10.0194452601
  C         9.5390045641        3.3815417592        8.0526781331
  C        10.3465244708        2.0518047361       10.0045573287
  C         8.9656057113        5.1110325168        9.2259245925
  C         8.3228358535        4.3984559622       11.2876823171
  C         9.4628034324        4.7280909265        7.9714601048
  C        10.0531389530        2.7932462451        6.9271592150
  H         9.9628925413        1.8241792378       11.0472478148
  H        10.5438311818        1.0922485255        9.4952534529
  C        11.5627875277        2.9624507403       10.0586711179
  S         8.5388589335        6.6320885965       10.0058192361
  C         8.0739998067        5.7773079008       11.4228800650
  H         8.1327148023        3.5912355006       12.0501122995
  C         9.7918101263        5.3997287101        6.8227337928
  H        10.0387701174        1.6814598154        6.8267360546
  C        10.4896852997        3.4585094801        5.7989550596
  H        11.3980762891        3.9948197754       10.4251173976
  H        12.0263433418        3.0305042977        9.0565268151
  C        12.5525199634        2.3305245241       11.0792011513
  C         7.6887502268        6.5207061821       12.7136200116
  C        10.4184696920        4.8248998980        5.7075783066
  H         9.7051546777        6.4851473650        6.8488193369
  C        10.9704572761        3.0976185089        4.5325931821
  H        13.6342348384        2.6002727465       10.8110860452
  H        12.5242943468        1.2224173989       10.7889398260
  C        12.1916898059        2.6254095974       12.4736844497
  C         7.7177382290        7.9352066726       12.9784007838
  C         7.0921260069        5.6594096016       13.8021669477
  C        10.8375088044        5.5605699743        4.4279492595
  C        11.1776644178        4.2067271847        3.7925383406
  S        11.1582134123        1.6103818570        3.7282716135
  H        12.3398143464        3.6878814821       12.7584985377
  H        11.1301125312        2.6738128364       12.6544762013
  C        12.7694872248        1.7427739995       13.5515439721
  N         8.0856452176        8.9629448530       12.0732711041
  C         7.3150295925        8.5057259970       14.1792845612
  C         6.7786205008        6.2742199239       14.9913662758
  H         6.9079292273        4.6197316960       13.5812253503
  C        12.1180539377        6.3909020312        4.5324525399
  C         9.7187299249        6.2991498111        3.6961492409
  C        11.6598778627        3.8165733512        2.5396778103
  C        11.6974944454        2.4764059850        2.3688032922
  H        13.8165951537        1.8969399469       13.6528033552
  H        12.5114991711        0.7229048401       13.4529602027
  C        12.3091713203        2.2314990871       14.9419406439
  S         7.9019077324       10.4235782071       12.7325837706
  N         7.4227235848        9.8732036037       14.1948472494
  C         6.9218796687        7.7606174567       15.2697282425
  H         6.3007826335        5.6836789724       15.7550797317
  H        11.9176163595        7.3057001170        5.1822504008
  H        12.4134285437        6.8714749117        3.6145345554
  C        13.3276050552        5.7126399100        5.1933006605
  H         9.5484665943        7.1418717605        4.3085225650
  H        10.0839625176        6.6547915053        2.6746476139
  C         8.2748551549        5.6422318181        3.4786530925
  H        11.9584131394        4.5850070282        1.8873428860
  C        11.9484398313        1.7366150229        1.1134110132
  H        12.1760181016        3.3362038350       14.8353225115
  H        11.3230628412        1.8193981816       15.1646967989
  C        13.1605650288        2.0554180224       16.1542638038
  C         6.6617495753        8.4634328772       16.4686611664
  H        13.0545468437        5.2382852352        6.1300315626
  H        13.5682405099        4.8270997837        4.6178433701
  C        14.5560814589        6.6017280696        5.3158109492
  H         7.9459201254        5.1556888774        4.3605166791
  H         8.4960095466        4.8400207977        2.7722292455
  C         7.2309477716        6.5481170147        3.0315493716
  C        11.9377256920        0.3385925892        0.9096383303
  C        12.0705335991        2.5235553743       -0.1167180694
  H        14.0803444463        2.6012162967       16.0546265480
  H        13.4123338794        0.9543741736       16.3088147204
  C        12.3833586315        2.5801616177       17.4342055919
  H         6.4772674632        9.5673629059       16.3287508549
  C         6.4427317842        8.0386599066       17.7492795321
  H        14.2383604798        7.5047962431        5.8333920330
  H        15.0310560270        6.9442703314        4.4079080360
  C        15.5593124316        6.0125967250        6.4090377872
  H         6.6458868729        6.8944798356        3.9118075176
  H         7.6867750178        7.4545779229        2.5587920112
  C         6.3519215728        5.9105792823        1.9887780601
  N        11.6819777201       -0.6274352664        1.8658682817
  C        12.1805343382       -0.2201721425       -0.3317007779
  C        12.3229683806        1.9150008025       -1.3535568562
  H        12.1035915004        3.6165599981       -0.0875579902
  H        11.4625370313        2.0801043454       17.6552226943
  H        12.0830955680        3.5780705452       17.2242056551
  H        13.0495708002        2.5958532741       18.3393077976
  S         6.3461011766        6.4367672709       18.3522691160
  C         6.2750783888        9.1715191009       18.7086882208
  H        15.5026999833        6.6338190864        7.2891214132
  H        15.3356594681        5.0299592314        6.7387025166
  C        17.0363957723        5.8432778830        5.7861115503
  H         6.0222255093        4.8913144750        2.2824316177
  H         7.0299844407        5.7784637165        1.0779568329
  C         5.0702566965        6.6394864293        1.5254412280
  S        11.7469781087       -2.0732146914        1.1523050234
  N        12.1203363158       -1.6112727308       -0.3632817544
  C        12.4659256091        0.4868770515       -1.4701560962
  H        12.4313045433        2.4485877632       -2.2914543558
  C         5.8018084668        7.2300806939       19.8477468774
  N         6.0237401537        8.5824804819       19.8786022858
  O         6.4935890590       10.3919698362       18.5239513093
  H        17.0056260249        5.3284766145        4.7628060052
  H        17.5079114817        6.8174967428        5.7228682482
  C        17.8198876808        5.0608234833        6.8260593071
  H         4.7325302318        6.0695358109        0.7198021567
  H         4.3271424900        6.4833131181        2.2832622043
  C         5.2391537389        8.1598359615        1.3143608729
  C        12.7827862407       -0.1606249071       -2.6887791706
  S         5.4558832168        6.4260323276       21.3573005606
  C         5.8175192178        9.3749825926       21.0840103880
  H        17.2300441674        4.7937883173        7.6656122867
  H        18.0121356583        4.1073284063        6.3716112663
  C        19.0310647859        5.9690445161        7.2510754858
  H         5.7966784332        8.4426719016        0.4381205173
  H         5.8663652916        8.5912559032        2.1130561185
  C         3.8533216889        8.8221608235        1.2894114933
  H        12.3376148334       -1.1157573985       -2.6856714354
  C        13.2000047271        0.2244311430       -3.9692833121
  H         4.8455195660        9.1178192603       21.5562054375
  H         5.4942012386       10.3189667772       20.7669930773
  C         6.9898189477        9.3393553409       22.0251602660
  H        19.4420549241        5.6848181990        8.1913886321
  H        18.7156610067        6.9616555771        7.3100137020
  C        20.2336272943        5.7249912460        6.3802975485
  H         4.0326560695        9.8728558414        0.9954166078
  H         3.1601480150        8.3132166349        0.6253156045
  C         3.2810846474        8.7880655812        2.7411043709
  S        13.5244165646        1.7636183463       -4.5717014831
  C        13.3848675122       -0.8460506946       -4.9382547743
  H         6.7098861394        8.6526447801       22.8048044260
  H         7.1086933824       10.2690477082       22.5040316172
  H         7.9319771405        9.0422303628       21.5254824936
  H        20.9720381368        4.9617813423        6.6936856277
  H        20.0168825345        5.6092804342        5.3239406103
  H        20.8737561279        6.5617312627        6.5647906496
  H         2.5615258676        7.9708758298        2.8118596186
  H         4.0933157976        8.5560256383        3.3854724675
  H         2.7732367863        9.7055538731        3.0332767347
  C        14.2295641546        0.9609589744       -5.9571610114
  N        14.0711168509       -0.3917368326       -6.0258064202
  O        13.2024614884       -1.9842009615       -4.6942306453
  S        14.8520154077        1.9147181291       -7.2397650086
  C        14.2136992520       -1.2786696697       -7.1840708009
  H        14.2350067875       -2.3012518299       -6.8307249995
  H        15.1166885436       -1.0578458938       -7.6900586174
  C        12.9732895465       -1.1036590920       -8.0954000928
  H        12.1611378747       -1.5540166595       -7.5054314311
  H        13.1389812475       -1.7008932219       -8.9349294579
  H        12.7265267054       -0.1512753576       -8.4551459567
