352
 i =    98000, time =    49000.000, E =        98.4137926503
  H        12.3229360869        5.4162480553       31.9772724698
  C        11.2717699284        5.1282634249       32.2506638171
  H        10.9916192561        4.1599418246       31.8022216308
  C        10.4591578905        6.2584104328       31.5734965519
  C        10.9834972560        5.0506941157       33.7415168444
  C        10.8563238821        6.4755530379       30.0713474632
  H         9.4023145913        6.1251169915       31.7954932537
  H        10.6791586937        7.1694617432       32.1871641467
  H        11.1676845917        4.1239321457       34.2921775344
  H        11.4198048079        5.8613261574       34.3843421126
  H         9.8992768631        5.3159426414       33.8265618874
  C        10.3580518258        5.3886300375       29.1521689656
  H        11.9052219149        6.5478494589       29.8393109218
  H        10.3333799709        7.3691530951       29.7283441584
  C        10.8133904824        5.7383285100       27.6825873666
  H        10.7322881949        4.4977708463       29.5690845802
  H         9.3115625507        5.1628208487       29.1519745233
  C         9.7504035029        5.0623409222       26.7184412307
  H        11.8235709105        5.3842458576       27.4756619052
  H        10.8088725411        6.7963326265       27.5191227468
  C         8.5532736335        5.8950732913       26.3217441733
  H        10.3558951719        4.7387136586       25.8128614389
  H         9.5347078291        3.9994535490       27.0748337988
  C         7.3703495332        5.1750806399       25.4641944106
  H         8.3364521499        6.4135887899       27.2093293238
  H         8.9926998994        6.6696304476       25.7172508940
  C         7.0624980350        3.9028964314       26.1693485928
  C         7.6955570547        4.5226764825       24.1672519779
  C         6.1504202976        6.1550170044       25.4206492221
  C         7.2494504587        2.7903022562       25.3707215335
  C         6.6627099661        3.6275001243       27.5038533898
  C         7.6787272344        3.1726916236       24.0717158004
  C         8.1223876771        5.1657118801       22.9634861452
  H         6.3183422664        6.9895017119       24.7416593390
  H         5.9036173633        6.5956468864       26.3568647217
  C         4.8560521297        5.4961906460       24.8524492982
  S         6.9375078593        1.2979431737       26.1915635433
  C         6.4662794378        2.2923239896       27.6301868739
  H         6.6600583523        4.4179408739       28.2240158972
  C         8.1094581867        2.5939269103       22.8943367137
  H         8.1833541097        6.2405739367       23.0269686344
  C         8.5245043222        4.5638317220       21.8354584427
  H         4.9686156175        5.3108052334       23.7627615000
  H         4.6957597088        4.5784184670       25.3462172713
  C         3.5446629008        6.3419160008       25.0362036793
  C         6.1085613576        1.5880933868       28.9203733580
  C         8.5432434752        3.2435689920       21.7423218033
  H         7.9638584452        1.5496102167       22.8133995391
  C         9.0300091514        4.9975127055       20.6327709733
  H         2.6755922028        5.9639608747       24.4766398494
  H         3.6979089963        7.3557119109       24.6481941787
  C         3.0129705248        6.5706024500       26.4651152647
  C         6.0639421445        0.1453736708       29.2323276416
  C         5.5909879697        2.4245685177       30.0084107029
  C         9.0579954934        2.6101383177       20.4732401952
  C         9.2852310327        3.9321750373       19.7605263652
  S         9.2578536192        6.5764021190       19.9347117242
  H         2.4466608826        7.4653369365       26.5907481586
  H         3.9006281512        6.5920989446       27.0508446166
  C         2.2020598698        5.3788264446       26.9075012976
  N         6.5030007263       -0.9062957925       28.3799487857
  C         5.7543015223       -0.3139277228       30.4839627501
  C         5.3546991983        1.9025063187       31.3234289889
  H         5.4379668851        3.4716515412       29.8766489337
  C         7.8704901521        1.8713620120       19.8046211040
  C        10.2872591297        1.6707999889       20.8010979218
  C         9.8987953046        4.3722057871       18.6000937935
  C         9.8362925380        5.7466688127       18.5314456027
  H         1.3666158915        5.3060023762       26.2496385058
  H         2.6625504477        4.4551542670       26.5826479967
  C         1.8643011302        5.4421994464       28.4186254168
  S         6.5575848303       -2.2733392310       29.2250138050
  N         5.7032502007       -1.7482403324       30.4516054464
  C         5.4864009276        0.4899070214       31.5782557017
  H         5.1402914823        2.5219952425       32.2130549160
  H         7.6552991954        0.8666498191       20.1110680159
  H         8.1627003932        1.5889447425       18.7827241332
  C         6.5718660184        2.7174977521       19.6883054130
  H        10.3619666511        0.9136616918       20.0328968085
  H        10.2290530788        1.0861529836       21.7341703453
  C        11.6340547952        2.4480464988       21.0202051443
  H        10.1564412963        3.6493060719       17.8728139121
  C        10.0653756659        6.4502184085       17.2240244476
  H         1.0491208838        4.6893414593       28.5422762942
  H         1.5515272401        6.4661088998       28.7045321613
  C         3.0677495998        5.0938630528       29.2180836232
  C         5.2815377502       -0.1454557886       32.8418631520
  H         6.8824608740        3.3822714466       18.8929921416
  H         6.3387728920        3.3150050420       20.5922871858
  C         5.3529678293        1.9032880544       19.1616935557
  H        11.3474480281        3.3380161632       21.5039445642
  H        11.8777324465        2.7371414933       20.0090791558
  C        12.7235667560        1.6662063960       21.6234913629
  C         9.9828472073        7.8798852717       17.0284470547
  C        10.1973326495        5.5891781112       15.9694394138
  H         3.3171598217        3.9884041174       29.1597195565
  H         3.9500132601        5.6993823127       28.9751536349
  C         2.8773542710        5.2290450829       30.7100303074
  H         5.6705323802       -1.1661554882       32.8642442062
  C         4.8189006360        0.2586694102       34.0635171158
  H         4.9557993417        1.2800689652       19.9329276955
  H         5.6043633603        1.4102223065       18.2364378348
  C         4.2235381029        2.8221447911       18.8101013939
  H        12.5945603424        1.4510210109       22.6570315189
  H        12.8646986556        0.7428858143       21.1058987218
  C        13.9626845442        2.4941944599       21.6433565123
  N         9.7945509924        8.8406034428       18.0504155428
  C        10.2199253594        8.4167302023       15.7578597655
  C        10.3810753230        6.2001443915       14.7259989168
  H        10.3289513554        4.5969097212       15.9742542561
  H         2.3518404133        6.1617521234       31.0143623227
  H         2.4025429125        4.5090801598       31.3308635960
  H         3.8422485585        5.4461503327       31.1965998715
  S         4.3234090771        1.7680534827       34.5978343162
  C         4.5503924174       -0.7963188379       35.1269584092
  H         3.6234116805        3.2549048847       19.5722658739
  H         4.6675554701        3.6544543432       18.2529143755
  C         3.3057202015        2.2765058062       17.7643126292
  H        13.7737192970        3.4876370886       22.0647325074
  H        14.1692873676        2.7161640495       20.5902614078
  C        15.2032178261        1.8323844352       22.2267312730
  S         9.8740049680       10.2724456007       17.3197841332
  N        10.1839934792        9.8205268480       15.7865878279
  C        10.4480843894        7.6408627494       14.6199798409
  H        10.5549665139        5.5668453076       13.7882179117
  C         4.2002138520        1.2015896355       36.2142266510
  N         4.2104684180       -0.1756024666       36.3028559885
  O         4.6837052773       -2.0272857997       34.8850853382
  H         4.0199895638        2.0697975735       16.8874557042
  H         2.6039546925        3.0498524020       17.4224664509
  C         2.5795247547        1.0744874406       18.3053138105
  H        14.9762472137        1.6853768864       23.2998605766
  H        15.3754491281        0.8585479971       21.7131538002
  C        16.4945743157        2.6027593499       21.9302363602
  C        10.8735173293        8.3598781445       13.4402416824
  S         3.6580202603        2.1831075886       37.5406301654
  C         3.9165199879       -0.9170230005       37.4921819722
  H         3.2917254214        0.3405096875       18.6125547429
  H         1.9002392918        1.2966004823       19.1591695345
  C         1.6215770328        0.4325661337       17.1749155381
  H        16.3142130224        3.6692227507       21.9376528214
  H        16.6910222020        2.5764042309       20.8806728425
  C        17.6737165046        2.2255464818       22.7878801826
  H        10.7249696781        9.4376947177       13.5149416088
  C        11.4814683324        7.9752625686       12.2369184861
  H         3.2795834714       -0.3518057744       38.1725980128
  H         3.4219840539       -1.8120336009       37.1685835414
  C         5.2544033604       -1.1847954686       38.2340924481
  H         1.0762876128        1.2346052800       16.5564475970
  H         0.9046511116       -0.1475717660       17.6719805929
  C         2.3398525645       -0.3375392020       16.1761045644
  H        18.0268099614        1.3140279774       22.3911946721
  H        18.5616662404        2.8563636539       22.6163120805
  C        17.3458537689        2.1191276541       24.2711228059
  S        12.0149343529        6.4203584399       11.8228596464
  C        11.6009592530        9.0108679926       11.1328937509
  H         5.8448038150       -1.9553372578       37.7097692821
  H         5.8580486697       -0.2610556078       38.1885719339
  H         5.0904433796       -1.5080109797       39.2691883992
  H         3.2061314876        0.2394319439       15.7523759694
  H         1.6066746348       -0.4997186228       15.3680114344
  H         2.6787297686       -1.3590505467       16.5020451654
  H        18.1980359158        2.0612296083       24.8498201971
  H        16.7859680964        1.1792997993       24.4096956688
  H        16.7578259929        2.9599887576       24.7091480313
  C        12.3840362163        7.1307196305       10.2557509768
  N        12.1420197386        8.4441098178       10.0515326760
  O        11.1408673086       10.1226555883       11.2004463179
  S        13.0499820394        6.2406182318        8.8448309945
  C        12.2517633674        9.3048022068        8.8214662945
  H        12.4009138362       10.4041513260        9.0163549672
  H        13.1128367788        9.0316705845        8.2160416591
  C        11.0055270156        9.1947822666        7.9219927523
  H        10.1340388544        8.9254506895        8.4972612344
  H        10.6584518026       10.1372292711        7.4806329235
  H        11.1562780733        8.3825244749        7.1642646808
  H         2.1807286438        3.8230686684       12.0906563049
  C         2.6808507985        2.9392275433       12.5767057719
  H         2.1056478844        2.0418215715       12.2039173657
  C         4.1159107659        2.8483955963       12.2128176733
  C         2.5573050111        3.1051550016       14.1505076262
  C         4.3605465258        2.9163910317       10.7156184830
  H         4.5370956180        1.8850316018       12.5093359369
  H         4.7416572736        3.5851708560       12.7015471693
  H         1.6642369338        3.7632171485       14.3873001427
  H         3.3759819572        3.5796637970       14.6969822923
  H         2.4034288370        2.0997287449       14.6373691027
  C         4.6874731017        1.5073372803       10.0843809017
  H         3.4437287666        3.3490528131       10.2546358030
  H         5.2147257054        3.5706159748       10.5213070782
  C         5.1904167641        1.8278831293        8.5981720514
  H         3.8706135097        0.8292416465       10.0917124977
  H         5.4998108137        1.1410444993       10.6600732578
  C         6.6204299222        2.5178919160        8.4073309386
  H         4.4115900274        2.4759840455        8.1405254370
  H         5.1708442478        0.8334557803        8.1757797892
  C         7.7785222821        1.8723711995        9.2677794346
  H         6.9640114769        2.2456121682        7.3527103049
  H         6.6184212087        3.6048730370        8.3485290149
  C         9.1699579835        2.6909421498        9.2559656788
  H         8.0326769382        0.9401678710        8.8891417716
  H         7.5462304450        1.6526428383       10.3031975218
  C         8.8001169214        4.0363624977        9.8963738347
  C         9.5886618039        3.4219604897        7.9878258701
  C        10.3014160976        2.0087249375       10.1011623932
  C         8.9431812234        5.1301317425        9.0140934332
  C         8.1702297682        4.4146813178       11.0846499544
  C         9.5398174998        4.7441470169        7.8513441591
  C        10.1044925943        2.7684272901        6.8600474775
  H         9.9375568751        1.5793487675       11.0064847842
  H        10.6136180697        1.0767549324        9.5884599717
  C        11.4927332649        2.9859683376       10.3721561835
  S         8.6579759829        6.6820549740        9.7733133730
  C         8.1393836999        5.7666619866       11.1945507848
  H         7.9127578557        3.6566519937       11.8051646883
  C         9.9983018401        5.3810363270        6.7133380359
  H        10.1674955055        1.7050004101        6.8536216445
  C        10.5497790797        3.3995070202        5.7918787197
  H        11.1219187324        3.7985047675       10.9421526351
  H        11.8099655784        3.2343194463        9.3733745509
  C        12.6326127864        2.3522292897       11.1330650445
  C         7.7499465472        6.4880726864       12.4517683091
  C        10.5907524447        4.7469533002        5.6433315828
  H         9.8112706162        6.4177829463        6.6374974464
  C        10.9994756765        2.9379695836        4.5759826215
  H        13.5544796341        2.7832905711       10.7683095744
  H        12.6351780278        1.2042350477       10.9279114498
  C        12.4794334199        2.6300536638       12.6156248468
  C         7.8220705616        7.8747340932       12.7021043253
  C         7.2515758214        5.6833626575       13.6080876225
  C        11.0236147116        5.3423373629        4.3487171284
  C        11.3152337368        4.0103749530        3.7449699787
  S        11.2545500770        1.4389517305        3.9447190486
  H        12.5703557946        3.7137899606       12.8655339822
  H        11.4093150850        2.4178625233       12.8452486554
  C        13.4226948298        1.9648578701       13.6252038113
  N         7.9857414156        8.8468073670       11.7860324755
  C         7.4279848824        8.4638906185       13.8915956626
  C         6.8593212897        6.2314618761       14.8153916387
  H         7.3192919707        4.5310314743       13.5627981159
  C        12.3862905224        6.1404910768        4.4182571071
  C         9.9532875680        6.1357414392        3.5740538814
  C        11.5856296254        3.5506165416        2.4305099569
  C        11.6486224890        2.1852201022        2.3833102126
  H        14.3790989242        2.4784024833       13.6408855534
  H        13.8075918190        0.9381973886       13.3043227340
  C        12.8096649778        2.0347035938       15.0163070117
  S         8.0373819024       10.3440286173       12.4676289315
  N         7.6444831818        9.9157111635       14.0009491082
  C         6.9444080857        7.7097220481       15.0364957764
  H         6.4895800350        5.6017899733       15.6658208946
  H        12.1548369445        6.8105071169        5.2424287773
  H        12.5411391332        6.6644554121        3.4727758864
  C        13.6233602606        5.1793487609        4.6335507161
  H         9.6060986572        7.0015101647        4.1651332744
  H        10.4344869816        6.6965695106        2.7818065309
  C         8.7135143341        5.3347713009        3.0597691135
  H        11.8031658082        4.3216167791        1.7126677212
  C        12.0164897693        1.3565542293        1.1979959627
  H        12.1599809565        2.8854081910       14.9951166210
  H        12.1796856607        1.1828460764       15.3192322107
  C        13.7913382042        2.5185720515       16.0506162136
  C         6.7100187564        8.3407826544       16.2963491916
  H        13.4983281242        4.3861807524        5.4001990961
  H        13.9239037398        4.6550779210        3.7244433017
  C        14.8268164703        6.0155529948        4.8604201249
  H         8.3251551248        4.8570979267        3.9240231554
  H         8.9543349893        4.6777145987        2.2102918916
  C         7.6569075584        6.3155155408        2.6052257016
  C        11.9754602484       -0.0678311288        0.9611946520
  C        12.2952896774        2.1749103903       -0.0353030036
  H        14.3995255436        3.3516971538       15.6547843700
  H        14.4012682230        1.6822313845       16.2222517453
  C        13.2160212998        2.8222952678       17.4110017122
  H         6.8449857413        9.4007329598       16.3197330475
  C         6.4508428129        7.9313286081       17.5776932012
  H        14.4406514263        6.6762982151        5.6111511352
  H        15.0681635417        6.5950677430        3.9452032568
  C        15.9817927324        5.2697603030        5.4661045108
  H         7.3711265502        6.9902413227        3.4293804895
  H         8.0861273785        6.9133048897        1.8351085357
  C         6.4296401521        5.6444318013        2.0730902183
  N        11.7837926199       -1.0005937482        1.9982827538
  C        12.2852997881       -0.6500705971       -0.2449604866
  C        12.4892570146        1.5117394054       -1.2494135813
  H        12.3403661230        3.2414493604        0.0037712385
  H        12.3459912301        3.4620846994       17.4604112687
  H        13.9641859154        3.4176975270       18.0187890008
  H        12.9363999705        1.8705288808       17.8918941677
  S         6.0996008679        6.3632629398       18.1105323810
  C         6.3035318172        8.9572687614       18.5965036316
  H        15.5089980288        4.5030888369        6.1299912214
  H        16.5259012908        4.7211452873        4.7336904722
  C        16.8845496832        6.1436734938        6.3296786746
  H         6.2220230986        4.8017321235        2.6632065135
  H         6.6805072199        5.2429332969        1.1074298599
  C         5.1850729898        6.5261068911        1.9484718973
  S        11.8024823717       -2.5093871490        1.3621451116
  N        12.2544652977       -2.0439434137       -0.1814665024
  C        12.5459894426        0.0380486458       -1.4455624368
  H        12.6505369859        2.1174121857       -2.1260107255
  C         5.6994833289        7.0730893239       19.6204740607
  N         5.9334389662        8.3686833735       19.7166252202
  O         6.3306621204       10.1445149198       18.3564241225
  H        17.3737992694        6.8866343082        5.7536005711
  H        16.2390164595        6.6823348257        7.0434646470
  C        17.8116449250        5.3869821631        7.2120171969
  H         4.3581141448        5.8782503925        1.5528477124
  H         4.8499261698        6.7141060912        2.9138631269
  C         5.4121023394        7.8148501844        1.0699024386
  C        12.8858416156       -0.6968573647       -2.5793651976
  S         5.2084299320        6.2202321385       21.0793942504
  C         5.7800115053        9.1317975190       20.9369452865
  H        17.3209319086        4.9893617777        8.1181456739
  H        18.0431937362        4.4085173732        6.7530722057
  C        19.1366896003        6.1021353559        7.4844730830
  H         5.2370442590        7.6335272212        0.0436596837
  H         6.3976994320        8.3144938461        1.1093943334
  C         4.4100091506        8.8395780463        1.4450427486
  H        12.7142685738       -1.7426926446       -2.5586434167
  C        13.3218210424       -0.2834891840       -3.8333276938
  H         4.8249426203        9.1042284159       21.4696880152
  H         5.8147376793       10.1620913458       20.6601239871
  C         7.0395142960        8.8735780509       21.8273065388
  H        19.7455625718        5.4609939360        8.1326711090
  H        18.8858548341        7.0191201999        7.9733136164
  C        19.9097109045        6.2844296105        6.2305941187
  H         4.2924767583        9.5899839617        0.6273330236
  H         3.4070106260        8.3596023646        1.4197647329
  C         4.6424436706        9.5501378984        2.7970186083
  S        13.7030829524        1.2869225681       -4.2150294121
  C        13.3806019601       -1.2650010318       -4.9476930798
  H         7.4782709698        7.8991513667       21.7461415099
  H         6.8070550856        9.1496869833       22.8328413492
  H         7.8905432058        9.5085068449       21.5201953396
  H        19.6691212674        7.1150568978        5.6708404199
  H        20.9794717013        6.4133661167        6.4597322931
  H        19.8515761684        5.4376706903        5.5568307778
  H         4.4012081888       10.5571298120        2.6762832928
  H         4.1015372399        9.0577825227        3.6417485311
  H         5.7187988117        9.6152026539        3.0594513450
  C        14.1370772027        0.7029132046       -5.8165162492
  N        13.8966147086       -0.6130004429       -6.0146510576
  O        13.0768500724       -2.4619858754       -4.7951675172
  S        15.0770891364        1.6414211640       -6.9634613283
  C        14.0760629489       -1.2765065451       -7.3665435807
  H        14.5933901355       -2.2145645213       -7.0962930687
  H        14.6820313830       -0.6552597109       -7.9833614297
  C        12.8139471353       -1.4911852895       -8.1178010839
  H        11.9097531769       -1.5725515302       -7.5057457461
  H        13.0593766161       -2.2830843822       -8.7896139606
  H        12.7313289950       -0.6283899714       -8.7732366039
