352
 i =   108200, time =    54100.000, E =        99.3908387851
  H        10.1014794854        4.7474612761       31.8004383621
  C        10.4447720397        5.6692367952       32.1924116708
  H         9.5326863123        6.2570116011       32.1792807973
  C        11.5162269994        6.1858719717       31.2342029391
  C        10.9542039823        5.4160243497       33.5866247495
  C        10.9882748018        6.5165911296       29.8922740793
  H        11.9100170113        7.1125933783       31.6529941076
  H        12.3591854871        5.5421684071       31.1779627786
  H        10.2108044114        5.5403201108       34.3591539182
  H        11.3236256088        4.3842854925       33.7411293817
  H        11.8460989366        6.0101327339       33.8052574595
  C        10.7101805396        5.2375322700       29.1511051291
  H        11.8154486095        6.9231152882       29.2992981841
  H        10.1848222821        7.2103383533       30.0000614132
  C        10.9164761361        5.4240109862       27.6855841267
  H        11.3454855324        4.4909484828       29.3788812901
  H         9.6005688969        4.9109026183       29.2915328104
  C         9.7307678011        4.9576624454       26.9053883336
  H        11.8289677083        4.9254134390       27.2440216683
  H        10.9374821474        6.4353290501       27.4442253879
  C         8.5000367068        5.9605708345       26.7202795700
  H        10.0685727041        4.8286332986       25.9317204783
  H         9.4243317633        3.9727631154       27.3422214104
  C         7.3495340727        5.3524615318       25.7863984426
  H         8.0156783771        6.1418443019       27.6855531306
  H         8.7613966784        6.9363124348       26.4606678952
  C         7.0487994521        3.9808972311       26.3860246322
  C         7.8647526325        4.7016506934       24.5138801944
  C         6.1695965519        6.3758630980       25.5817197462
  C         7.2435553800        2.9201752564       25.5749001401
  C         6.4806342857        3.5394991298       27.6090421950
  C         7.7662470957        3.3644767626       24.4064379473
  C         8.3008728420        5.4225448588       23.3678618019
  H         6.4573531312        7.1627601426       24.9228029747
  H         5.7870877245        6.8957681839       26.4654418083
  C         4.9686191889        5.7154863087       24.8274679762
  S         6.8530033173        1.4051818700       26.2008196169
  C         6.3878055245        2.1899736203       27.6700665448
  H         6.2922263338        4.2358208855       28.3863983809
  C         8.0843377854        2.7768080850       23.1800063968
  H         8.3353676905        6.4993738539       23.4656414450
  C         8.6416350486        4.7916871268       22.1593895149
  H         5.2750983694        5.5617966635       23.8626280166
  H         4.6656315847        4.7202473342       25.1250746528
  C         3.7240828915        6.5410240920       24.7247636661
  C         5.9669404545        1.4371279169       28.9671688907
  C         8.5385267106        3.4615911042       22.0376085482
  H         7.9541251611        1.6815429430       23.1584563406
  C         9.0471675909        5.1138154349       20.8978589552
  H         3.0581537385        6.0898331804       23.8508080300
  H         3.9667766867        7.5240141336       24.2969645174
  C         2.9581429134        6.6948471838       26.0333880783
  C         6.0721688829        0.0598066636       29.2436175780
  C         5.4893909379        2.2085561165       30.1750041407
  C         8.9097015234        2.7143971897       20.7722131743
  C         9.2947920380        4.0223690814       20.0711104972
  S         9.3443848850        6.5888770157       20.1141844464
  H         2.2983685650        7.5206865247       25.8660637448
  H         3.7020054609        7.1112082249       26.7124889872
  C         2.2838673990        5.4472531496       26.5392684402
  N         6.5059823699       -0.8640615301       28.2778838394
  C         5.8238616928       -0.5250716231       30.4798882921
  C         5.2190382369        1.5812217788       31.4544295758
  H         5.3174835044        3.2255953503       30.0990623963
  C         7.5393684789        2.0823228601       20.2332825993
  C        10.1177316504        1.7296655483       20.9948532987
  C         9.7981565855        4.4268060659       18.8551655344
  C         9.7395783479        5.7859545611       18.7068705504
  H         2.0342570315        4.8078909819       25.6960248009
  H         2.9148386998        4.8100916448       27.1683591228
  C         1.1150683169        5.7002465155       27.4771038191
  S         6.5450521216       -2.3041752662       28.9788148963
  N         6.1023593186       -1.8979523703       30.4866878376
  C         5.3915871687        0.1163962519       31.6230293868
  H         4.8509792569        2.2916263737       32.1715154666
  H         7.0556094757        1.4929199316       20.9761343687
  H         7.9842173632        1.3842543766       19.4410491211
  C         6.4836572511        3.0709568658       19.5399456741
  H        10.2626504623        1.2137111808       20.0589468228
  H         9.8317380217        1.0602927577       21.7610712422
  C        11.4101675425        2.4991687651       21.3347905941
  H        10.0692319905        3.7009030745       18.1214959230
  C        10.0290724770        6.5183382199       17.4058058572
  H         0.4689555744        4.8399698461       27.6168273241
  H         0.3634740598        6.3243333088       27.0216743547
  C         1.5139757528        6.3403076000       28.7941654647
  C         5.0710545757       -0.6286742211       32.8036898198
  H         6.9906929240        3.8722172686       18.9921184589
  H         5.9450298199        3.6311905869       20.3498562471
  C         5.6072697703        2.1640068973       18.6366719440
  H        11.0735591601        3.1441565934       22.1668715518
  H        11.7332462809        3.1361161421       20.4880526054
  C        12.5823894632        1.6445095910       21.8524291346
  C        10.0503840849        7.9538776558       17.2766419983
  C        10.2789345053        5.7610620753       16.1560468798
  H         2.3206307625        6.9617882972       28.6476170644
  H         0.6800814120        6.9228563774       29.1771098139
  C         1.9517735684        5.4352655319       29.9083447217
  H         5.0618909238       -1.6936267570       32.6207524270
  C         4.8342569351       -0.1226840291       34.0671523851
  H         5.5742119451        1.1620327414       19.0656193190
  H         5.9514283242        1.9870155096       17.5894817417
  C         4.1951117634        2.8040180764       18.4070135177
  H        12.1392394664        0.9672274361       22.5466827092
  H        12.9974108484        1.0278431201       21.0106971012
  C        13.5438461007        2.4150050126       22.6663360399
  N         9.7298864048        8.8332028638       18.2898610666
  C        10.3683175353        8.5661770388       16.0733737165
  C        10.6190192514        6.4238710215       14.9316674374
  H        10.3685524841        4.6399362945       16.1756808516
  H         1.7030249672        5.8623438934       30.8792280561
  H         1.4999242492        4.4504753658       29.7786014536
  H         3.0540259987        5.3849327488       29.8929600250
  S         4.5428309670        1.5323839913       34.6237158779
  C         4.7275461867       -1.1498933682       35.1198093964
  H         3.7597015938        2.9909167667       19.3745842920
  H         4.2008286151        3.7964345900       17.9523923997
  C         3.1888520145        1.8370399639       17.7457301941
  H        13.4751574240        1.9213522129       23.6092937508
  H        13.2398963997        3.4854573404       22.8701656056
  C        14.9939486752        2.3337821722       22.0958455734
  S         9.9671254508       10.3517113742       17.7080183118
  N        10.3048916825        9.9727754908       16.1737729963
  C        10.5463203736        7.9383217229       14.8506728534
  H        10.8148197680        5.8896013605       14.0468603272
  C         4.2683739696        0.8076263344       36.2189020805
  N         4.2997631149       -0.5440281768       36.2561812228
  O         4.7649611642       -2.3139423281       34.9014274787
  H         2.7585481506        2.2450415829       16.9208985974
  H         2.2445453076        1.7058283562       18.3265504739
  C         3.6365427245        0.4153176895       17.3243516143
  H        15.3553656109        1.2952822787       22.2747060643
  H        15.0636061378        2.4617682268       21.0572771216
  C        15.9387397813        3.4058918061       22.8493927147
  C        10.8426000840        8.7325875206       13.7356473712
  S         3.7885772623        1.7700682188       37.5881306212
  C         4.2509234119       -1.3944249093       37.3886345057
  H         4.5930686222        0.2940099556       16.7835580918
  H         3.7300950453       -0.2494428440       18.1929628360
  C         2.4662162772       -0.3914473880       16.6994612718
  H        15.9221865883        3.1334447727       23.9047493321
  H        15.5079049837        4.3800678949       22.6361474341
  C        17.3318981909        3.3317087501       22.2755497073
  H        10.7609863000        9.8377750875       13.7821120644
  C        11.3243683698        8.3593352862       12.5087485560
  H         3.7087624159       -0.9123031180       38.1406587886
  H         3.7928045879       -2.3824220469       37.2085144197
  C         5.6436837909       -1.6583198887       38.0502270531
  H         1.9465738961        0.0529023330       15.8582353207
  H         1.7474228180       -0.2425165525       17.5129756200
  C         2.5861514684       -1.8949035308       16.5224293761
  H        17.3618934760        3.2926209135       21.2062651729
  H        17.9916860641        4.1409906053       22.5670430386
  C        18.1297725691        2.1758418521       22.8062199851
  S        11.5987810674        6.7669288725       11.8850119568
  C        11.6035014271        9.4275124791       11.4871915121
  H         5.7997991403       -2.7102623274       38.3184036785
  H         6.5117499356       -1.3853846449       37.4312898284
  H         5.7020545192       -1.1656724983       38.9980153596
  H         2.3805454790       -2.2664549135       17.5108989897
  H         3.6384544679       -2.1169264716       16.3417313775
  H         1.9139096061       -2.3008614229       15.7375077011
  H        18.9445580963        1.9032205040       22.1374993354
  H        17.6022011754        1.2897224801       23.0068358741
  H        18.5183289901        2.3553633026       23.8082192495
  C        12.2576618211        7.5681607118       10.4120553892
  N        12.1628948079        8.8967363690       10.4131392390
  O        11.3379082980       10.6306187821       11.6242555391
  S        13.1586429626        6.8064581650        9.1307781997
  C        12.5127646057        9.6961785793        9.2172290512
  H        12.7639475923       10.6982256531        9.4439182644
  H        13.2900463474        9.3356494705        8.6065788354
  C        11.4627652542        9.7159475954        8.1385829176
  H        11.4605242325        8.8891871496        7.4663131507
  H        10.4416608386        9.9804086773        8.4856181583
  H        11.6629918796       10.5353185226        7.5104301103
  H         2.4299401699        2.8843272381       12.1455273291
  C         3.2743802473        2.2544620086       12.4022643012
  H         2.7631791610        1.3035014090       12.4283897836
  C         4.4490701713        2.2043584615       11.3460694712
  C         3.7494912915        2.5275592115       13.8479810461
  C         4.0672871041        1.9658662140        9.9539209717
  H         5.2164181269        1.5517780711       11.6706672664
  H         4.9211538534        3.2069565907       11.4329180704
  H         4.4464101157        3.3387264084       13.7287164047
  H         4.2393246252        1.6946790873       14.3008109145
  H         2.8650662856        2.8340524460       14.4341897160
  C         5.0486346870        0.9436810083        9.2512552182
  H         3.0636034449        1.6221681040       10.0598072445
  H         3.9059326438        2.9260165190        9.4896195846
  C         5.8679176087        1.4616239900        8.1136097683
  H         4.3841182003        0.1873141103        8.8480560261
  H         5.6797850293        0.3822657528        9.9538304287
  C         6.8695581537        2.5625243907        8.6623058202
  H         5.1496683714        1.8026171237        7.3848019181
  H         6.4384860369        0.6182789438        7.6146685179
  C         8.2334464444        1.8700648707        9.0944519749
  H         7.0752259578        3.4171382237        7.9936227917
  H         6.3954868029        3.0397577219        9.4307153924
  C         9.3566610199        2.8281280010        9.2843114200
  H         8.4965721189        1.0162793968        8.4710273617
  H         7.9300791472        1.6587751223       10.1487561179
  C         8.9177554130        4.1463194091        9.9243261750
  C         9.6524748144        3.4776861231        7.9561781356
  C        10.5665518928        2.1196592115        9.9213210898
  C         9.0642700600        5.2370689006        9.0168121194
  C         8.4320635990        4.6162379163       11.1206540496
  C         9.5803832770        4.8219577072        7.8086367991
  C        10.1617871355        2.8236164389        6.8205344861
  H        10.3264653884        1.7775427720       10.9213203587
  H        10.8986208316        1.2771818497        9.4125501577
  C        11.7428388995        3.0239581357       10.0982501095
  S         8.4275181064        6.6971389595        9.6783805672
  C         8.1182646287        5.9246428672       11.1829357899
  H         8.3685215100        3.9489334104       11.9937696462
  C         9.9806182355        5.4286662218        6.6812882123
  H        10.3751403619        1.7371534218        6.8110820332
  C        10.4910787655        3.4125380405        5.6339854982
  H        11.4096824121        4.0313683573       10.3629969757
  H        12.2572833212        3.2542769032        9.1919431730
  C        12.8340844356        2.5791064366       11.1810530346
  C         7.6133707753        6.6591918130       12.4176030748
  C        10.4558345239        4.7556820365        5.5042660268
  H         9.8113577976        6.5326762433        6.6824832315
  C        10.9444796117        2.9717335669        4.3919484682
  H        13.7510468420        3.0402452306       10.7926376978
  H        13.0137813786        1.5400499072       11.0706407137
  C        12.4794707289        3.0437843531       12.5577958258
  C         7.6424608547        8.0140628159       12.6820252817
  C         7.0092093715        5.8657579897       13.5411130295
  C        10.8788098226        5.4251547171        4.2158395105
  C        11.1257876461        4.0768310251        3.5231576587
  S        11.1757990769        1.4871587464        3.6330415636
  H        12.8720087412        4.0943084736       12.6557744589
  H        11.4264209451        3.0444512314       12.6297826483
  C        12.8390068858        2.1065314186       13.7281810623
  N         8.0569166525        8.9280061099       11.7702042679
  C         7.3631092974        8.5474070286       13.9480645899
  C         6.6384531475        6.3996131835       14.7953316812
  H         6.7144050487        4.8901951601       13.2959587029
  C        12.1970651315        6.1333753002        4.2720751547
  C         9.7833501121        6.2943411076        3.4587924771
  C        11.5668808777        3.6764120742        2.2571285978
  C        11.6138576793        2.2953379511        2.1523609543
  H        13.8440846592        2.1155520381       13.9614030841
  H        12.4126752011        1.1938498538       13.3879448517
  C        12.2008514059        2.5128393078       15.0464903096
  S         7.9512815088       10.3389389291       12.4590823352
  N         7.5383930481        9.9214178190       13.9642831520
  C         6.9510390265        7.8379633170       15.0945064298
  H         6.4379162728        5.7047998553       15.5813424692
  H        12.1841006197        6.9998266137        4.9606188987
  H        12.4814010176        6.4325648088        3.2512816241
  C        13.2922007169        5.3077022021        4.8297256874
  H         9.5337964925        7.2262482615        3.9583698257
  H        10.2461247136        6.6999854991        2.5734813594
  C         8.5133993330        5.5463119422        3.1098623576
  H        11.7525286115        4.4452534139        1.5175460122
  C        11.7708713062        1.6197243184        0.8141371551
  H        11.8522616692        3.5379414334       14.8694416823
  H        11.3890981233        1.8658403452       15.2885100362
  C        13.2017584045        2.4521223931       16.1931794333
  C         6.7097754962        8.5508399212       16.3064049293
  H        13.0696529322        5.1119333039        5.8480939368
  H        13.4897856951        4.3946775711        4.2477669092
  C        14.5798023672        6.0338189048        4.7170971119
  H         8.1842426422        4.8340624863        3.8799754636
  H         8.6599774366        4.8722411766        2.2586539856
  C         7.4610794767        6.6163189873        2.7603819315
  C        11.9387256483        0.2474677574        0.6400495067
  C        12.0201591246        2.4410551126       -0.3586558374
  H        14.0566188831        3.0959096468       16.0981700295
  H        13.4797803217        1.4260998493       16.4023170129
  C        12.7340054053        2.9365024593       17.5620785698
  H         6.8198017755        9.5972794670       16.3106165707
  C         6.4984848469        8.2154641728       17.6165981829
  H        14.5417198730        7.0403147320        5.2057808180
  H        14.7685597128        6.2751621244        3.6690724519
  C        15.9816076649        5.4113622068        5.1459563578
  H         7.2712364843        7.0735278077        3.7512387911
  H         7.8545180049        7.3313519116        2.0705989124
  C         6.1444434932        5.9727146383        2.2765647747
  N        11.7846692329       -0.6575529048        1.6508077559
  C        12.2315220280       -0.3259836910       -0.5959717899
  C        12.2867456409        1.8494004313       -1.6124058133
  H        11.9185044983        3.5191471878       -0.2053806197
  H        13.5414965704        2.9942363611       18.3468843622
  H        11.9389000110        2.3388579766       18.0586285574
  H        12.4184973499        3.9899577027       17.6049273530
  S         6.2248053337        6.6475035311       18.1400326315
  C         6.3974254793        9.2378285823       18.6252246427
  H        16.2931149611        4.7259672737        4.4119119296
  H        16.6810906797        6.2336793330        5.2175692149
  C        16.0759680056        4.9219144810        6.5831927775
  H         5.9733486498        5.2146253662        3.0061393285
  H         6.2366307039        5.4415063310        1.3491093418
  C         4.8663679351        6.8689268895        2.0948227680
  S        12.1089913294       -2.1318350224        1.0203181915
  N        12.4393522801       -1.6676583787       -0.4991776783
  C        12.4112846229        0.3777740832       -1.7512118525
  H        12.2732160682        2.4645400943       -2.4772970626
  C         5.8907215587        7.3512675096       19.7244614843
  N         6.0476207388        8.7166306350       19.8235936373
  O         6.5390662200       10.3952396646       18.2917601184
  H        15.7984917658        5.6763401301        7.3881377924
  H        15.3281933563        4.0839035979        6.6959823065
  C        17.4790723376        4.4455951553        6.8921993467
  H         3.9871911244        6.2653718641        2.0260297659
  H         4.8448498192        7.5645518930        2.9626355753
  C         4.8428820273        7.6025540780        0.7891874682
  C        12.6927689090       -0.3903604817       -2.9209830135
  S         5.6292850629        6.4270786337       21.2275570652
  C         6.1146243962        9.3932216323       21.0976574894
  H        17.3240345460        3.8356722015        7.7458856380
  H        17.8404915513        4.0271813580        5.9671146119
  C        18.4732890144        5.5455420029        7.2520190887
  H         4.5623122402        6.9302426920        0.0007392489
  H         5.8350219347        7.9516108606        0.5360137210
  C         3.7789189345        8.7103806503        0.6537545767
  H        12.5392378122       -1.4472448544       -2.9463475326
  C        13.2418261629       -0.0398587388       -4.1585866690
  H         5.5466511624        8.8992703659       21.8662007887
  H         5.7598878164       10.4185321318       20.9519092525
  C         7.5091737311        9.3800330070       21.6813476547
  H        18.7694425177        5.2808543274        8.2804844217
  H        17.9789466804        6.4977190768        7.3923260794
  C        19.7152493720        5.4869251312        6.2805600488
  H         3.2891164053        8.5636935153       -0.2713330392
  H         3.0310039153        8.7283720871        1.4923351769
  C         4.2683017189       10.1365931756        0.6896981254
  S        13.8517939591        1.5442284443       -4.5681675785
  C        13.3609598307       -1.0909504052       -5.2450514202
  H         7.7851746327        8.3948891747       22.0122108689
  H         7.5564304488        9.9170254792       22.5919656550
  H         8.3079175723        9.6912900925       20.9661767968
  H        19.3752639208        5.9773006156        5.3975654793
  H        20.5764077164        5.9569682711        6.7300559280
  H        19.9029277201        4.4579868889        6.0222955617
  H         4.6840219602       10.2731890238       -0.2768838019
  H         3.3228455092       10.8109561151        0.7804419632
  H         5.0311570975       10.3256089384        1.5179657609
  C        14.2094161907        0.7665709741       -6.1862048609
  N        13.9159305675       -0.5679707646       -6.3489337265
  O        13.1789955540       -2.3106520190       -5.0760584654
  S        14.8975259004        1.6637420281       -7.5138343391
  C        14.0344787432       -1.2520366062       -7.5903742792
  H        14.3337901937       -2.2823144380       -7.4364781925
  H        14.8164302865       -0.9020721645       -8.1028015349
  C        12.7781084889       -1.2713347438       -8.4534754866
  H        12.0662524292       -1.8720063666       -7.8987912475
  H        13.0236969691       -1.6143661699       -9.4911513394
  H        12.2848124326       -0.2742815354       -8.5444982495
