352
 i =     1600, time =      800.000, E =       216.8174104027
  H        10.8497509650        7.2746902734       32.3978326883
  C        10.8721179704        6.2191736247       32.5620644566
  H        11.9453888565        6.0729144295       32.5006487329
  C        10.1502829929        5.5864152287       31.3333196015
  C        10.2353301514        5.8934917027       33.9130578562
  C        10.2124748230        6.3678745431       30.0064704190
  H        10.6825639058        4.6480181185       31.1899696509
  H         9.0032580104        5.4635609964       31.4040017187
  H        10.4875228415        6.4982523694       34.7688666679
  H         9.1563545824        6.0184181206       33.9215477843
  H        10.2443091945        4.8826138320       34.3269044095
  C         9.5191012856        5.6442817735       28.9550408559
  H        11.2686883416        6.3890794961       29.7903599276
  H        10.0846903603        7.4101373933       30.0707626295
  C        10.3169255631        5.6136939559       27.5966056072
  H         9.2221700601        4.6195722683       29.1481367934
  H         8.5841428078        6.1932717647       28.7446356540
  C         9.5079251279        5.0405594103       26.4366000521
  H        11.2170642263        5.1125379270       27.6686168818
  H        10.4840460788        6.6367248004       27.5001324430
  C         8.3864097800        5.9138477896       25.9418014098
  H        10.2625738062        4.9760020335       25.6647443694
  H         9.3337691127        4.0712478342       26.7554354075
  C         7.1109651315        5.2762979983       25.4398379516
  H         8.0630072402        6.5590565131       26.7915270032
  H         8.6292187182        6.5699693953       25.1760353897
  C         6.8160898836        3.8758084044       26.1270886789
  C         7.4266895451        4.5976550551       24.1979762096
  C         5.9115759676        6.1256651901       25.3155612271
  C         7.0008975287        2.7932972473       25.2751393450
  C         6.3384522015        3.5320085473       27.4222713668
  C         7.4694877698        3.1945580335       24.0749398238
  C         7.9281844531        5.2154382775       23.0194884922
  H         6.2100755568        6.8997903166       24.7067989960
  H         5.5532521614        6.6038337001       26.2663153586
  C         4.6611052233        5.4688547693       24.7181678156
  S         6.6809794018        1.2284685893       26.1429791893
  C         6.1905749319        2.1348599519       27.5541435093
  H         6.1045793024        4.3220299828       28.1846286607
  C         7.9035638047        2.6205854517       22.8883006612
  H         8.0386690198        6.1986898564       23.1046174303
  C         8.4314575311        4.6285791334       21.8896279173
  H         4.8234043704        5.2799440276       23.6439447832
  H         4.3068093660        4.6526938261       25.3272252041
  C         3.4402646823        6.4091267521       24.6379327239
  C         5.6918206804        1.3998960332       28.7161113991
  C         8.4404051576        3.2428163404       21.7989144457
  H         7.8280002213        1.6309651557       22.7969311525
  C         9.0588988775        4.9623128427       20.7132326566
  H         2.7506571949        6.0107322428       23.8501788880
  H         3.8143744271        7.4379164546       24.4542629344
  C         2.7288876051        6.5850872762       25.9288498291
  C         5.8579948251        0.0293481098       28.9900111866
  C         4.9416002877        2.1021279813       29.7680052028
  C         8.9902516568        2.5297367164       20.5804255922
  C         9.3116985411        3.9101128863       19.8594009353
  S         9.3600783170        6.5091433244       19.9381507470
  H         2.3028414483        7.5136415996       25.6367411295
  H         3.4629876540        6.6989702458       26.7752977202
  C         1.7110069252        5.5707390426       26.1261119983
  N         6.3011554865       -0.9509569542       28.0619622016
  C         5.5244313321       -0.5565705655       30.2075307312
  C         4.7695358988        1.4823811696       31.0332595405
  H         4.4931839917        3.1571714915       29.6638248688
  C         7.9133708000        1.6583886523       19.8624325742
  C        10.2693106955        1.8364402399       20.8919305357
  C         9.5389469588        4.2903053351       18.6103301456
  C         9.5419220069        5.6579184735       18.4106767269
  H         0.9135700733        5.6632099655       25.4323786476
  H         1.9965774097        4.5524578228       26.0862373773
  C         1.1116006022        5.5704689156       27.5273159189
  S         6.3360759780       -2.4019371068       28.8606233935
  N         5.8223884354       -1.9596534769       30.2495345812
  C         5.0171412845        0.0429185453       31.3304074014
  H         4.1467944764        2.0838227265       31.6255138402
  H         7.4434698548        0.8510919202       20.5280262610
  H         8.5658698887        1.0552634657       19.1690513898
  C         6.7675137808        2.4501521875       19.1495552948
  H        10.5181540471        1.0728717676       20.2024826071
  H        10.0243476414        1.1300052355       21.6893549553
  C        11.4997504199        2.6020247936       21.3109520038
  H         9.6905808411        3.5578255963       17.7435442842
  C         9.7838657431        6.3846039732       17.1423538005
  H         0.3922382177        4.7038703676       27.6398538703
  H         0.5239377294        6.4651369904       27.8398777187
  C         2.0290238048        5.3328071414       28.7104578913
  C         4.7713679413       -0.6424824219       32.5420627833
  H         7.0741434882        3.1595943306       18.3855854013
  H         6.2357451543        3.0574173191       19.9023635815
  C         5.8887764838        1.5079409022       18.3756470206
  H        11.1046838683        3.3806223274       21.9213111320
  H        12.0133963635        3.0815579548       20.5729978841
  C        12.6363307080        1.6970346321       21.8994010477
  C         9.9689612254        7.7313305780       16.9755090647
  C        10.0774650134        5.6192078277       15.9279668973
  H         2.1408643541        4.2351087993       29.0027683470
  H         3.0389567033        5.8991790122       28.6445129449
  C         1.2254720740        5.8043077106       30.0371154729
  H         5.1606704373       -1.6823759128       32.4007292179
  C         4.4718373992       -0.2338921630       33.8357585656
  H         5.3363540632        0.5467699963       18.6909383205
  H         6.4710917041        1.2449291268       17.4827390648
  C         4.5872407239        2.1375179762       17.8239500627
  H        12.2531791961        0.8613656330       22.5041430265
  H        13.0728178863        1.3635919286       21.0094381021
  C        13.7352357023        2.5158849715       22.5653789336
  N         9.7784099585        8.6668095853       18.0339851790
  C        10.2838415058        8.3432860048       15.7820974516
  C        10.5204231369        6.1804034344       14.7780709690
  H         9.9341688869        4.5729001896       15.9264636643
  H         1.7751220015        5.4726757452       30.9215281158
  H         1.1261782892        6.8571735763       30.1265202462
  H         0.1807226603        5.3907978220       30.1325888106
  S         4.1075180971        1.3502123481       34.3846396585
  C         4.3877709749       -1.2769220350       34.9305498802
  H         4.7271212530        3.1915493957       18.0307001857
  H         4.7529220103        2.0308871555       16.7253382112
  C         3.2505656288        1.4730433086       18.2092723943
  H        13.5348500352        3.0591080105       23.3518717144
  H        14.1228924111        3.2185927799       21.8662147531
  C        14.9965205556        1.6603226487       22.7752906853
  S         9.9820778510       10.1233271486       17.4732000893
  N        10.2676462173        9.7869024841       15.8845841085
  C        10.5772825073        7.7223754895       14.6392929830
  H        10.5512337305        5.4811094626       13.9452680293
  C         3.8247623574        0.6619431225       35.9321402992
  N         3.9630761984       -0.6999576661       36.0415332133
  O         4.6155823634       -2.4081958494       34.6790723465
  H         2.4289171595        2.1538345346       17.9462135540
  H         3.1775661862        1.2942574860       19.2241784817
  C         2.9805829617        0.1653677739       17.3586943334
  H        14.7440826023        0.9170677588       23.5082949952
  H        15.1632870733        1.1117514543       21.8209924900
  C        16.2272442378        2.5376596152       23.2243685559
  C        10.9513336144        8.4123536890       13.4877593353
  S         3.6488072790        1.6758124086       37.3745457913
  C         3.8949044022       -1.2858609868       37.4053628445
  H         2.6701055003        0.4728279854       16.3544153142
  H         3.9871879109       -0.5233667613       17.3505628201
  C         1.8069683831       -0.6624354377       17.9348307413
  H        15.8977514883        2.8394369391       24.1988154262
  H        16.3214057801        3.3499447014       22.5443658322
  C        17.6387222849        1.9414481653       23.2123170765
  H        10.8469614560        9.4116600167       13.6035320872
  C        11.4524960686        8.0524139403       12.2465682453
  H         3.0558675266       -0.8793132121       38.0261174098
  H         3.6369219695       -2.2970653591       37.0301090520
  C         5.2114244019       -1.3623033437       38.1485587041
  H         0.9569498157       -0.3702555387       17.2768724114
  H         1.4329721626       -0.4163420307       18.8615692761
  C         2.1319302006       -2.1223329249       17.6704857999
  H        18.2947574793        2.7631598252       23.6812290657
  H        17.7082368234        1.0783915045       23.9700588979
  C        18.0143653569        1.7346902077       21.8791492970
  S        12.1000702005        6.5638101198       11.7290934536
  C        11.5396963034        9.2349959758       11.2435527304
  H         5.9053890418       -0.5059803708       37.9494847626
  H         5.1149949139       -1.6379437559       39.2754374127
  H         5.8152688677       -2.1022252166       37.7883207513
  H         1.2799671884       -2.6375331606       18.1909109483
  H         3.1213386060       -2.3756775083       18.1021299966
  H         2.0004928646       -2.3796272065       16.6716453261
  H        18.2657635929        2.5634604369       21.2840065811
  H        17.2427951658        1.0593630309       21.2795205049
  H        19.0330878918        1.1408376443       21.8927139431
  C        12.3874325579        7.4337252631       10.1981388093
  N        12.2249286210        8.8152710274       10.2361370996
  O        11.2129429050       10.3450377007       11.5582909895
  S        13.3018420495        6.6996932029        8.8563853110
  C        12.4580519258        9.6221034150        8.9857233695
  H        12.6126349792       10.6115000317        9.4517470299
  H        13.3429038537        9.3845927600        8.5184009642
  C        11.2838626938        9.5460385910        8.0213746711
  H        10.4052652327        9.6637178539        8.4803096088
  H        11.5525405321       10.4134259137        7.4314029820
  H        11.2481105822        8.6090620877        7.6259846281
  H         4.4408426700        1.4071555430       12.6779183361
  C         3.7224120136        2.3135002801       12.6061173338
  H         4.6005670599        3.0975712645       12.5397590870
  C         3.0193938074        2.2127519097       11.2789600131
  C         2.9403509137        2.5568333744       13.8660479476
  C         3.8522840082        2.6173830057       10.0862249831
  H         2.0674399324        2.9714482802       11.2122609134
  H         2.4370778951        1.2250991657       11.2091302501
  H         2.2533718514        1.7715667027       14.0243034793
  H         2.3472513851        3.4464986432       13.9215663645
  H         3.6767191992        2.7127395753       14.7214208520
  C         4.6277815717        1.4835546666        9.3816213542
  H         2.9886870326        2.9024721755        9.4055565063
  H         4.4686776513        3.4742293926       10.3472780683
  C         5.4702784450        1.8195095567        8.1406064687
  H         3.8985901196        0.6497809155        9.2160092256
  H         5.3226315223        0.9871937820       10.1132773145
  C         6.7082847167        2.7604316630        8.2978951015
  H         4.8975645796        2.2291842834        7.3497649340
  H         5.9993459831        0.9276143206        7.8617489498
  C         7.8866292208        1.9821521482        8.9115674416
  H         6.8666776397        3.3044921011        7.2291517482
  H         6.3728860282        3.6199208788        8.8850592084
  C         9.0962313605        2.8325507905        9.3043591292
  H         8.2922978550        1.1428660595        8.3642784295
  H         7.5342854667        1.6186934123        9.9405996705
  C         8.7688877021        4.2901991265       10.0078353902
  C         9.5692361244        3.5343911205        8.0754547971
  C        10.1211203154        2.0627400647       10.1036785883
  C         9.0541434929        5.3035098675        9.1431807427
  C         8.2480696476        4.7501600426       11.1785967165
  C         9.5248304171        4.8957447265        7.9322726036
  C        10.1213163168        2.8778914659        6.9492769145
  H         9.6598452623        1.5763002529       10.9014057718
  H        10.2551049849        1.1610884604        9.3936735844
  C        11.4274174415        2.8354810798       10.4159411974
  S         8.6626707163        6.8928752000        9.8056086434
  C         8.0861068159        6.0557396641       11.2711332359
  H         8.0528095042        4.0716169092       12.0138821390
  C         9.9277762182        5.4044488602        6.6777886878
  H        10.1950350267        1.8123996679        7.0536403911
  C        10.4956495848        3.4067425703        5.7573163043
  H        11.3680697819        3.8606679085       10.7458623490
  H        12.1141761888        2.9028240679        9.5373633972
  C        12.2819412988        2.1116887909       11.5515514363
  C         7.5700452692        6.7911684736       12.4050910361
  C        10.3997232038        4.7312157400        5.5687590083
  H         9.7606696907        6.4174504646        6.6150615493
  C        10.8709942248        2.9793168942        4.4718867226
  H        13.1927257982        2.4033691559       11.4032741659
  H        12.3216331348        1.1150448096       11.1899120508
  C        11.6718555567        2.1177368837       12.9586971611
  C         7.6029527628        8.1470512237       12.5859834023
  C         7.1376290342        6.0087385884       13.5863038364
  C        10.8475891132        5.3980967716        4.3190109872
  C        11.1267746760        4.0773409021        3.6482212464
  S        11.1330756568        1.4182556670        3.7493038928
  H        11.3234315691        3.1257029184       13.3321319686
  H        10.7510592036        1.5966576017       13.0588268151
  C        12.5672208218        1.5206407090       14.0460707212
  N         8.0454029611        9.1071593365       11.6675409571
  C         7.2871003042        8.7232697170       13.8157019675
  C         6.8548303379        6.5684206163       14.8169495607
  H         7.0224100158        4.9266974774       13.5793206637
  C        12.1855705387        6.2498852737        4.5299809496
  C         9.6890250080        6.2201849924        3.6370966943
  C        11.4708790018        3.6531997212        2.3729138824
  C        11.4140717876        2.2512978737        2.3245200222
  H        13.6091533933        1.8896689557       13.8379750911
  H        12.4904184261        0.3896261797       13.9241338720
  C        12.1530777560        2.0966086113       15.4062304120
  S         8.0869479189       10.5738583864       12.3510614174
  N         7.6173709357       10.0919998963       13.8392794186
  C         7.0007084639        8.0721568338       15.0279549493
  H         6.4250587633        5.8337493879       15.5577561662
  H        11.9407125394        7.0396768561        5.3152623186
  H        12.3738127580        6.5117894091        3.5187262939
  C        13.2902096923        5.3281139801        5.1152298179
  H         9.1946127041        6.8287883456        4.3682074506
  H        10.0193117704        6.9085739071        2.8103923428
  C         8.5517220205        5.3110227951        3.0930385236
  H        11.6267678750        4.4650880964        1.6026410380
  C        11.6848993202        1.5433740257        1.0274260219
  H        12.0979363583        3.2087592738       15.3106648291
  H        11.2367058778        1.5560486336       15.8209713210
  C        13.2083691701        1.8594792026       16.4951817747
  C         6.8845717295        8.6758886345       16.2651662850
  H        13.0886839903        4.6369688671        5.8832674858
  H        13.7767253452        4.7217245818        4.2881361408
  C        14.5308776606        6.2588783256        5.4950406181
  H         8.1235068716        4.7020894623        3.8806860020
  H         8.8946390820        4.4352342411        2.5149744748
  C         7.6777283923        6.2027418075        2.2402219684
  C        11.7404440743        0.1164867976        0.8304137046
  C        11.8243647057        2.2625851629       -0.1818079374
  H        14.1635584212        2.2289357274       16.1621337124
  H        13.2134149806        0.8020748249       16.5925470482
  C        12.8986039406        2.3361581657       17.8813877367
  H         7.3429399974        9.7573133700       16.4112592187
  C         6.4851536206        8.2210406285       17.5056897014
  H        14.1273290903        7.0646475930        6.0904724531
  H        14.9059321341        6.6514840774        4.5846991809
  C        15.5826422435        5.3764431960        6.2436073470
  H         7.1288334004        6.9530288315        2.8798760068
  H         8.2645380136        6.8068577988        1.6063877501
  C         6.6447786761        5.3966522645        1.3871305888
  N        11.5894639962       -0.9311732713        1.8410416344
  C        12.1292460119       -0.3719208398       -0.4337982632
  C        12.2791763586        1.7402627153       -1.4047166020
  H        11.8317595866        3.3323118587       -0.0656474630
  H        13.5112253456        1.7857032299       18.6222134914
  H        11.8710723013        2.0734991167       18.2388890096
  H        12.9952205372        3.4304587260       17.9914421508
  S         6.1599363747        6.5527035017       18.1268595226
  C         6.4974347689        9.3350141642       18.5679988734
  H        15.2419738904        4.8515239735        7.0346284080
  H        15.9165860812        4.7247922278        5.4858643925
  C        16.7780720138        6.2026191461        6.5971956895
  H         6.7548176125        4.4394185905        1.5593239106
  H         6.7352526106        5.6122452950        0.4260852765
  C         5.1214811981        5.7912277301        1.8772106536
  S        11.7593551447       -2.3727832282        1.0731394880
  N        12.1837527198       -1.8487024547       -0.3840644748
  C        12.3701010930        0.2277059950       -1.5809339414
  H        12.2729915501        2.5265434916       -2.2652533874
  C         5.8830599090        7.4761815746       19.6592042791
  N         6.1199597506        8.7947055736       19.7159440219
  O         6.7642325949       10.5056501924       18.3785393803
  H        17.0410012076        6.9343668284        5.7338931105
  H        16.5149878546        6.9153330915        7.3982158676
  C        18.0100488474        5.3115083760        6.9641939953
  H         4.4014135328        5.0258981241        1.5440295445
  H         5.1757437901        5.6324153790        2.9565430616
  C         4.7806742597        7.1959654026        1.4911376836
  C        12.6559001689       -0.3951739532       -2.8068285497
  S         5.4944220816        6.6838497263       21.1640399933
  C         6.3082167034        9.5592385063       21.0160771147
  H        17.6135628643        4.7370362336        7.7767681217
  H        18.1309822649        4.6205398202        6.2250589129
  C        19.3001709141        6.1116415981        7.1925895852
  H         3.9116111556        7.2536870398        0.7768022472
  H         5.5641912882        7.7218316315        0.8658095169
  C         4.1622225039        8.1361663166        2.5844859312
  H        12.6688117295       -1.5005787849       -2.7813860745
  C        13.1890757275        0.0528914881       -3.9611004456
  H         5.5011213354        9.4049113284       21.7622067901
  H         6.3020859728       10.6479136107       20.8492867950
  C         7.7111373183        9.3357900898       21.6011763922
  H        19.7261161186        5.7580763741        8.2707580383
  H        18.8637060549        7.2394085604        7.2537136329
  C        20.1160078320        5.9636216140        6.0284640007
  H         3.1994255036        7.7134282387        2.7841355689
  H         4.6256332195        8.1927304268        3.5726317582
  C         4.0332046422        9.5104474362        1.9950327270
  S        13.7429240737        1.6763043576       -4.3234638422
  C        13.4060824284       -0.9499025192       -5.0279237884
  H         7.6027942166        9.1192703352       22.6496707335
  H         8.2188698160       10.2494547110       21.4720694112
  H         8.1911496926        8.3628919008       21.2441277603
  H        20.8639825116        6.7472018195        5.9325285403
  H        20.6280162294        4.9682996455        5.9498648059
  H        19.5442922666        6.0197879192        5.1264842907
  H         3.2904520516       10.1360777685        2.3879101035
  H         4.9258117939       10.0329203928        2.1079057754
  H         3.8288973404        9.5156796778        0.9639474534
  C        14.2145065402        0.9965952303       -5.9081285121
  N        14.0548915522       -0.3567894504       -6.0136613548
  O        13.0321858126       -2.1058887642       -4.8900001260
  S        14.7641669338        2.0452145219       -7.2231801699
  C        14.2593526499       -0.9959499690       -7.3577786390
  H        14.1841666929       -2.0243850013       -6.9659356215
  H        15.2795860470       -0.8438144526       -7.8008010245
  C        13.1585645839       -0.8308830166       -8.3114890727
  H        12.1199138393       -0.6882759015       -7.7671024259
  H        13.1769721419       -1.6793698683       -9.1286575434
  H        13.1757485961        0.0212493190       -9.0920924624
