352
 i =    63800, time =    31900.000, E =        98.9240018994
  H        11.8026077147        4.9882124601       32.2415449970
  C        10.8856871999        5.3962596859       32.6194074646
  H        10.2046591038        4.5399652768       32.8742869857
  C        10.2539511492        6.2856084828       31.5873071374
  C        11.0655092501        6.0431718129       34.0033416839
  C        10.0756541584        5.7063070542       30.1639368059
  H         9.2944059030        6.6558190151       31.8925430600
  H        10.8866932787        7.1595731149       31.4704245354
  H        11.2174672069        7.0922414847       34.0078552972
  H        10.2255688940        5.9129115424       34.6952140891
  H        11.9848737846        5.6472989797       34.4206172412
  C        10.1852858947        6.7100269021       29.0263065121
  H         9.2001382484        5.1544569140       30.0785088645
  H        10.9734764661        5.0576507254       30.0204715520
  C        10.6439588983        6.1289499152       27.7120424680
  H         9.2609373984        7.2500070217       28.9872740372
  H        10.9296894782        7.4554346397       29.3311092439
  C         9.5173410240        5.2439967944       27.1175745729
  H        11.4099264567        5.3112979956       27.8773262540
  H        11.0166386345        6.8872012036       27.0541214447
  C         8.4447812052        6.0728539505       26.3784913348
  H         9.9402788290        4.7374364927       26.2906016797
  H         9.0547857493        4.5538098416       27.7373307220
  C         7.3767553358        5.3000368069       25.6720058361
  H         7.9344867760        6.7660641628       27.1239671640
  H         8.9672575693        6.6478822051       25.5701979419
  C         7.0011469102        3.9250001705       26.2350591774
  C         7.8993478135        4.6497446290       24.4013440773
  C         6.1275855434        6.1612042988       25.5207750446
  C         7.3139895179        2.8333611182       25.4445976022
  C         6.4998935563        3.5569747710       27.4823939951
  C         7.9010966598        3.2939836726       24.2349399609
  C         8.2844535214        5.3306643202       23.2506833817
  H         6.2941816464        7.0152984773       24.8061002926
  H         5.8007482558        6.5608854781       26.4862603890
  C         4.9183195383        5.4598913263       24.9117766664
  S         6.9729394329        1.2503866519       26.2159013360
  C         6.4604810268        2.1704336499       27.5867489717
  H         6.2349139833        4.2856207347       28.1884640337
  C         8.3072589051        2.7099984144       23.0802666225
  H         8.2545460881        6.4763978145       23.2111021659
  C         8.6261482765        4.7152611275       22.0782352193
  H         5.1814211502        5.1215024903       23.8842796397
  H         4.5702385500        4.5491546342       25.4359407208
  C         3.6831460978        6.3490184846       24.6599675903
  C         5.9561408797        1.4893658401       28.8646059490
  C         8.7136596022        3.3798249613       21.9363974100
  H         8.2024111021        1.5992473623       22.9894157394
  C         8.9960102389        5.1447156132       20.7873969701
  H         3.1138374077        5.8582920855       23.8923256721
  H         4.0198730226        7.2410315984       24.2163499401
  C         2.7436555543        6.5240569469       25.8485671234
  C         6.0162897864        0.0984020595       29.2491038333
  C         5.4035886349        2.3827831322       29.9004460525
  C         9.0382445779        2.6223179228       20.6754603434
  C         9.1974739981        4.0546511472       20.0024807144
  S         9.1993921848        6.6285352194       20.0538346499
  H         1.8202888995        6.9862092077       25.3647140696
  H         3.1724673927        7.1179402973       26.6944863491
  C         2.1425947307        5.1601188121       26.4587627242
  N         6.5155471992       -1.0005377425       28.4662557928
  C         5.5892515511       -0.3502522510       30.4933762856
  C         4.9878782077        1.8819462510       31.1429996964
  H         5.1425745121        3.4083857179       29.7568291544
  C         7.7620866965        1.8558891549       20.0919273989
  C        10.2884443511        1.7503444627       20.8714911165
  C         9.5656186040        4.4793432557       18.7233552331
  C         9.5206709317        5.8708277920       18.6093708798
  H         1.5743092570        4.7234760360       25.6777619352
  H         2.9147051561        4.5210356230       26.7595171682
  C         1.2873378530        5.4870070980       27.7276252142
  S         6.2417462845       -2.4084326854       29.2806103862
  N         5.6673650862       -1.7124068985       30.6052498958
  C         5.1428526929        0.5010793878       31.5721155865
  H         4.5592883901        2.5875600630       31.8643572061
  H         7.1830709374        1.3403916798       20.8827273128
  H         8.1989071364        1.0957853891       19.4866163720
  C         6.7751853270        2.6970370657       19.3030096094
  H        10.5085657957        1.2516328228       19.9532235377
  H        10.1116639686        1.0061006430       21.6272859218
  C        11.5304727249        2.5788879749       21.3037340618
  H         9.7301080763        3.6725414673       17.9957156338
  C         9.8923551725        6.6514870120       17.3512397189
  H         0.3305456467        4.9913690498       27.9036751162
  H         0.8590300906        6.4984038632       27.5824552847
  C         2.2516818373        5.4114126027       28.8720774103
  C         4.8913996932       -0.0981295938       32.8606377356
  H         7.2264407237        3.2145442358       18.4384978689
  H         6.4694213754        3.4467316443       20.0394543044
  C         5.5266688917        1.8082495082       18.8555144984
  H        11.3852075472        3.1849942262       22.1869405299
  H        11.7676179143        3.2792457677       20.4718548068
  C        12.7520698103        1.6275356905       21.5232450013
  C         9.7952832526        8.0433946737       17.1623801410
  C        10.1436439117        5.8659054822       16.0763307170
  H         2.8940225292        4.5293365849       28.9065693221
  H         2.8872318051        6.3013666787       28.7824101681
  C         1.5667264691        5.4705245817       30.2410314139
  H         5.2834330885       -1.0704724427       32.9619013082
  C         4.5800068805        0.3456098178       34.0925716182
  H         5.1307868740        1.1011609718       19.6310421089
  H         5.9395980298        1.2224805060       18.0402313437
  C         4.3717142458        2.6347793460       18.2450122577
  H        12.5447733322        1.0543820459       22.4231418555
  H        12.8010372475        1.0046660347       20.6722086562
  C        14.0560274502        2.3448779061       21.6908571734
  N         9.5117988069        8.9746343325       18.1763089483
  C        10.1716805870        8.6484741108       16.0500575598
  C        10.3739669560        6.4647674205       14.8610622572
  H        10.0767390942        4.7837505076       16.1073225533
  H         0.8120970658        4.6204961368       30.4061567796
  H         2.2801767486        5.3413961973       31.0751437394
  H         0.9448692043        6.3747154455       30.3793735409
  S         4.2832859116        1.9627046148       34.5292175705
  C         4.5524750525       -0.6695440876       35.2044410554
  H         4.2261325364        3.5614437702       18.8420466657
  H         4.8011779354        2.8001707723       17.3026971867
  C         3.0846234044        1.7317381085       18.3428161555
  H        13.9019639966        3.3653218950       21.3704458605
  H        14.7501659670        1.8058933781       21.0430089498
  C        14.5797333374        2.5112094501       23.1069090647
  S         9.4997289578       10.4941152842       17.5475067674
  N        10.2289804307       10.0718193882       16.1572334363
  C        10.5068744124        7.9950175838       14.8480144251
  H        10.4536479520        5.8344680040       14.0177755135
  C         4.0331601184        1.2960788701       36.2151495106
  N         4.1446179308       -0.0225512749       36.3115190648
  O         4.7527634920       -1.8523275020       35.1589582672
  H         2.2730194586        2.2401510003       17.8388587095
  H         2.7665194318        1.5048525486       19.4106371456
  C         3.0885415287        0.5296752882       17.4410772243
  H        13.7840359500        2.4369832731       23.8421373020
  H        15.1605560993        1.6616641620       23.2358844319
  C        15.4995219028        3.7216311274       23.2851993928
  C        10.8201403454        8.7766121852       13.7445665723
  S         3.5314256475        2.1466675940       37.6895011177
  C         4.1989311389       -0.7798375114       37.5744753184
  H         2.4208347038        0.5937381956       16.6762678636
  H         4.0212117511        0.5505894061       16.9107059029
  C         2.9969360240       -0.8372119959       18.0712171836
  H        15.7837491449        3.8023131960       24.2404930852
  H        14.9020797465        4.6362224999       22.9943175376
  C        16.8080096467        3.5751457614       22.4495201225
  H        10.5603755002        9.7984018752       13.7656082770
  C        11.1966313114        8.4024273561       12.4598050515
  H         3.7097723043       -0.3262687449       38.4513743948
  H         3.6021225276       -1.6873354020       37.4591123262
  C         5.6370539039       -1.0872086328       38.0080916958
  H         3.6899357556       -0.7723896659       18.8959088971
  H         3.3275701594       -1.6946453021       17.3499670414
  C         1.5651977279       -1.0837649542       18.6479167104
  H        16.4749670579        3.3168138692       21.4322683028
  H        17.3909355419        4.5153750308       22.5799550856
  C        17.6993782063        2.4933867581       23.0615529320
  S        11.4970167574        6.8597477872       11.7213406737
  C        11.2180076587        9.5179582555       11.4818982457
  H         6.0884267531       -1.8905262569       37.4115471735
  H         6.3626894791       -0.2498211183       38.0420157015
  H         5.6395372788       -1.5105706166       39.0945922562
  H         1.5506618722       -2.0233009457       19.1905921856
  H         0.9358166709       -1.2653276893       17.7790062903
  H         1.1254388765       -0.2763226978       19.1536662628
  H        17.6675614078        2.4544927413       24.1396123807
  H        18.7617604737        2.7505037426       22.8235879600
  H        17.5609639105        1.4430290486       22.6090746108
  C        11.8419972588        7.7228395568       10.2407189164
  N        11.7351186214        9.0639747006       10.3106681729
  O        10.9984239232       10.6994290573       11.7641473948
  S        12.2525581327        6.8850742768        8.7710023137
  C        11.8654847685        9.9326438835        9.1205674347
  H        12.1298819367       10.9425934988        9.4258731129
  H        12.5847360894        9.5656946413        8.4478147665
  C        10.5456051477        9.9738815459        8.4692974566
  H        10.4534026185       10.7306917579        7.7033846903
  H        10.2983481601        8.9859883401        8.0326006807
  H         9.8809518399       10.2650579649        9.2748244527
  H         4.7267785997        2.5529938534       12.9494287201
  C         3.8494119029        3.1119673906       12.9779656749
  H         3.9860714389        4.1942456338       12.9715457078
  C         3.0137633222        2.8823728745       11.6900901891
  C         2.9235501552        2.9057874142       14.2032153929
  C         3.7777375518        3.0114308246       10.4009611588
  H         2.2401375600        3.6330801960       11.7139242281
  H         2.4393229187        1.9105330432       11.7985201395
  H         3.6204636195        3.1829286941       15.0601390374
  H         2.4481282974        1.9424420028       14.2655894600
  H         2.0633799880        3.5856462191       14.1356078523
  C         4.4887130413        1.6756202243       10.0471379764
  H         3.0973361770        3.4046528913        9.6192203580
  H         4.3961769407        3.8801183105       10.5111310766
  C         5.0809195645        1.7827138097        8.5575848083
  H         3.7542319965        0.8502871852        9.9872846637
  H         5.1958519524        1.4164749158       10.8837805930
  C         6.2698416593        2.6934517421        8.5070756748
  H         4.3856715336        2.2183620713        7.8137408829
  H         5.1833907200        0.8159927712        8.0383291395
  C         7.5391155611        1.9947586049        8.9757566420
  H         6.5099537718        2.9560775956        7.5003953356
  H         6.1464993934        3.5888578874        9.1164296730
  C         8.7929836108        2.9159287786        9.0851189299
  H         7.8147653162        1.1198900511        8.3976944116
  H         7.2384115702        1.6529326079        9.9617006414
  C         8.4941480746        4.2546104866        9.7813014548
  C         9.1009677200        3.6051903438        7.8198894589
  C        10.1223767842        2.4105177020        9.7889848437
  C         8.7366014922        5.3569595104        8.9663167255
  C         8.2393485466        4.6639845763       11.1111186581
  C         9.0155609538        4.9577725271        7.7017523860
  C         9.5509322083        3.0301716300        6.6396232948
  H         9.9358488645        2.2078374929       10.8809022828
  H        10.4798454642        1.4417040819        9.3257816473
  C        11.3774932939        3.3254088955        9.8713766083
  S         8.3451282760        6.8694435976        9.6823946553
  C         8.0987160472        6.0160855680       11.2437813107
  H         7.9551966779        3.9175567475       11.8124463132
  C         9.2772679504        5.6082360360        6.5107093066
  H         9.8169796449        1.9822800549        6.6136345787
  C         9.8671476666        3.6706527924        5.4833456302
  H        11.0039682741        4.3217747672       10.2405908916
  H        11.8669747164        3.2944196668        8.8847851043
  C        12.3252509895        2.7786236281       10.9600240104
  C         7.6770587760        6.5903475859       12.5735629663
  C         9.7105299429        4.9775126388        5.3439119031
  H         9.4106779734        6.6313026848        6.5204298001
  C        10.3592284041        3.1835468503        4.2891896036
  H        13.2909848503        3.1749417536       10.7289473199
  H        12.5816911300        1.7163147102       10.9702439327
  C        11.9826324051        3.2589169977       12.3465411150
  C         7.6872731167        7.9688921266       12.8546439781
  C         7.2066419802        5.7614742576       13.6975701495
  C        10.2075884327        5.6451165505        4.1201460455
  C        10.4827047944        4.2915154042        3.4695383102
  S        10.7387375311        1.6680842341        3.5864472138
  H        12.2732072532        4.3539779150       12.4685102252
  H        10.9298536441        3.3156433996       12.4136779084
  C        12.5923185183        2.4350501752       13.5032174873
  N         7.9910330458        8.9026430475       11.8833735493
  C         7.3202450890        8.5662020779       14.0445693709
  C         6.8748423975        6.3724932524       14.8955421374
  H         7.0685220471        4.6921279154       13.5392212133
  C        11.5348303902        6.4162047803        4.4474376165
  C         9.1322762978        6.3647678889        3.3021271879
  C        10.9022627153        3.8693925945        2.2029291723
  C        11.0443531793        2.5021427512        2.0648547911
  H        13.6770355871        2.5803290004       13.5253119229
  H        12.4257117057        1.4312067029       13.2231736865
  C        12.1164259414        2.7711588753       14.8886035286
  S         7.8599444612       10.3933402845       12.5695384679
  N         7.2590656632        9.9351389414       13.9591531510
  C         6.9329946373        7.8529898936       15.1276217026
  H         6.6152667870        5.7414491731       15.7404238383
  H        11.1197625155        7.2359351393        5.1915831481
  H        11.7473122779        6.9742075272        3.5608825789
  C        12.7891590633        5.6089901354        4.9362206957
  H         8.6744146754        7.2032788137        3.7992939632
  H         9.6230534548        6.7790414275        2.4251173641
  C         7.8377093102        5.5655786604        2.8450822598
  H        11.0206464273        4.6880603346        1.4542200870
  C        11.3337784800        1.6654694763        0.8617205137
  H        12.2586775893        3.7725183484       15.1043896065
  H        11.0675041733        2.6274291810       14.9558616291
  C        12.8334870908        1.9847860888       16.0123897362
  C         6.7115144166        8.5494581983       16.3525487171
  H        12.4982589792        5.0007837727        5.7625303863
  H        13.0965562504        5.0941715836        4.0354582119
  C        13.9456044727        6.5207533458        5.2152172712
  H         7.5493229125        5.0417913933        3.7774297543
  H         8.0766995801        4.7851649638        2.1264886785
  C         6.8105157603        6.5169776472        2.2684521957
  C        11.3386097973        0.2007572859        0.7612827191
  C        11.6399313714        2.3623914606       -0.3533580541
  H        13.9366151916        2.2270367346       15.9923845289
  H        12.5826791693        0.9355923764       15.9057714823
  C        12.2944870892        2.5609056503       17.3763062557
  H         6.7586261258        9.6234726959       16.3323047185
  C         6.4843812614        8.0880533168       17.6407712684
  H        13.8172503421        7.1867228064        6.0983129101
  H        14.0825649922        7.1473396212        4.3073072939
  C        15.1923705312        5.6599854417        5.3894700223
  H         6.7505526100        7.4387030355        2.8488376099
  H         7.0843208285        6.8856003078        1.2326921749
  C         5.3731555180        5.9186579716        2.3087566245
  N        11.1513584136       -0.7002137401        1.7733858155
  C        11.7137501568       -0.4519164089       -0.4284384361
  C        11.9443044178        1.7049112848       -1.5540430382
  H        11.8004722486        3.3930847210       -0.3317899019
  H        12.3201533537        3.6532553629       17.2730766847
  H        12.8925562731        2.2932014129       18.2058173764
  H        11.3394546168        2.1817778844       17.6008866731
  S         6.2128226031        6.4654907324       18.0955374357
  C         6.3398542325        9.0817762021       18.7545839004
  H        14.9687560547        4.5873901808        5.7357348065
  H        15.7091634420        5.5499426617        4.4543364803
  C        16.0929820386        6.3030974172        6.3742516494
  H         5.1658028202        5.9420642646        3.3513070891
  H         5.5152105903        4.9199135134        1.9101340021
  C         4.4791814846        6.8041994522        1.5459700709
  S        11.3278958274       -2.2382464323        1.2867750947
  N        11.8107122484       -1.8501499807       -0.2157999981
  C        11.9961183959        0.2236124191       -1.6587948387
  H        12.3017393339        2.3125801460       -2.4065251904
  C         6.0612369219        7.0737769484       19.7181928811
  N         6.0524889183        8.4087187648       19.8522041567
  O         6.3069064881       10.2830078679       18.6205328002
  H        16.6144708998        7.0989826504        5.9037691486
  H        15.4834943923        6.5470997153        7.2673703856
  C        17.1399780042        5.2606851307        6.8862995666
  H         5.0846292469        6.9051633942        0.5998195638
  H         3.4995138848        6.3119840738        1.3171269830
  C         4.2130897045        8.1904894766        2.1642751096
  C        12.3251204954       -0.5838812220       -2.7672933259
  S         5.4217755424        6.1206475475       21.0613617561
  C         5.8223626511        9.0329821907       21.1538096494
  H        16.7333860584        4.6719742672        7.6552874690
  H        17.3274513265        4.5985279448        6.0413436133
  C        18.5273213291        5.8535703283        7.2443847060
  H         5.0585128043        8.7946781516        2.3568349488
  H         3.7975761543        7.9401591611        3.0740548692
  C         3.2046783785        9.0316046014        1.3694636656
  H        11.9326438678       -1.5787183354       -2.7095128584
  C        12.7924556821       -0.2138830617       -4.0304081125
  H         4.9728664560        8.6293400844       21.6841538012
  H         5.5290761719       10.0129692360       21.0238957764
  C         7.0749439378        8.9096410350       22.0256123997
  H        18.9137527620        5.1749523789        7.9337042063
  H        18.4452755277        6.8426293675        7.8618192876
  C        19.5458575497        5.8063328493        6.0621290869
  H         2.2318644976        8.6428395454        1.4560588273
  H         3.1170712472       10.0013573730        1.8904578201
  C         3.5534197855        9.2394878284       -0.0728823260
  S        13.2803550925        1.3168652121       -4.6324693845
  C        13.0434031822       -1.3593508132       -5.0256270227
  H         7.9847059968        9.2590663722       21.6962973941
  H         7.1138920061        7.8736297988       22.4723936506
  H         6.7851072671        9.5669251466       22.8227976653
  H        20.4186831256        6.3403499702        6.4519112777
  H        19.9464160883        4.8442079773        5.7010711702
  H        19.0891781118        6.2738130872        5.1346025249
  H         2.9009081554       10.0595910313       -0.4820716490
  H         4.6043883678        9.4789992981       -0.2687360544
  H         3.1545388044        8.4242749853       -0.6585439289
  C        13.7714228847        0.5230137103       -6.1150788953
  N        13.5028180136       -0.8308935423       -6.1925750708
  O        12.7350731498       -2.5202374697       -4.8387039812
  S        14.2741014239        1.3568892219       -7.5978673646
  C        13.5895718343       -1.6362967408       -7.3601114648
  H        13.7229169301       -2.7187163775       -7.1024156704
  H        14.3814860246       -1.3335623230       -8.0540731981
  C        12.3160612880       -1.5951919389       -8.1119663249
  H        12.0322463091       -2.5985593540       -8.3976257058
  H        12.4039060070       -1.2726454621       -9.1118169472
  H        11.4781468793       -1.0920591630       -7.6377680275
