352
 i =    10900, time =     5450.000, E =       136.6607279133
  H        10.0087722742        4.5930677732       31.9170640258
  C        10.4478900388        5.6513151968       32.0705488192
  H         9.5937870031        6.3320461018       31.9755078731
  C        11.5296880515        6.0201083554       30.9934521056
  C        10.7212398909        5.6396490942       33.5536645207
  C        11.0287175676        5.4140409365       29.5737184362
  H        11.7413918486        7.0950578768       30.8352881398
  H        12.5107782782        5.6234216287       31.3638928483
  H         9.8387692947        5.4587107268       34.2041871350
  H        11.3716180339        4.8054546486       33.7735322462
  H        11.1623893389        6.6041729069       33.9378197641
  C        11.0733615958        6.4801144579       28.4710441887
  H        10.1228270784        4.8715449090       29.5272590273
  H        11.8983591558        4.7986012094       29.4147414945
  C        11.0984596019        5.8623448165       27.0593628560
  H        10.3332692176        7.2602029633       28.4444339208
  H        11.9839797789        7.0876438801       28.5694310418
  C         9.8475504470        4.9153777229       26.6641403279
  H        11.9580563002        5.2255139402       26.9330779152
  H        11.4131502215        6.6220579381       26.3713800791
  C         8.5956656294        5.8447478467       26.2728091423
  H         9.9819049495        4.1330570119       25.9081602354
  H         9.5392011953        4.3915696011       27.6347130088
  C         7.4522711693        5.1967464036       25.4842124637
  H         8.1627267551        6.2949560935       27.1785084517
  H         9.0427370835        6.7624100713       25.7639184775
  C         7.1571771065        3.8620218507       26.1349592737
  C         7.8337799346        4.5000367847       24.2331049875
  C         6.2388941538        6.1038725947       25.1834443463
  C         7.4012586088        2.7373486109       25.2737423108
  C         6.5615108200        3.3738236850       27.3007006207
  C         7.8377316684        3.1598464166       24.0945146646
  C         8.2831650365        5.2495998335       23.1318325909
  H         6.6180134365        6.8331386432       24.4831417491
  H         5.9212074254        6.6770817683       26.0971946733
  C         4.9451326819        5.3779742596       24.6674003479
  S         7.0700633087        1.1910370958       25.9907182997
  C         6.4043128377        2.0325721223       27.4019597506
  H         6.2123280168        4.0839838095       27.9608730228
  C         8.1920290828        2.6222731185       22.9100804383
  H         8.3867278411        6.3261830369       23.1287786688
  C         8.6021297447        4.6702488097       21.9329517143
  H         5.0419294357        5.0059353461       23.6267727070
  H         4.6297581959        4.5542054668       25.2623768658
  C         3.6661693832        6.2357591304       24.4747479624
  C         5.8362449672        1.3122724093       28.6448603455
  C         8.6224428180        3.2948804047       21.7385669261
  H         8.1076242132        1.5380633997       22.8218193879
  C         8.8973192035        5.0694858083       20.6189135179
  H         2.9090871190        5.8088010502       23.8773821803
  H         3.8079971798        7.2563014562       24.1150256896
  C         3.0197840531        6.8362593721       25.7036536214
  C         5.7939274710       -0.0745619913       28.9190805461
  C         5.2789312343        2.1652404888       29.6890315646
  C         8.9622387349        2.7012535635       20.5118761939
  C         9.2189921624        3.9879403448       19.7998488386
  S         9.0522988859        6.6040267773       19.8628864777
  H         2.3005598182        7.4996864792       25.3779055382
  H         3.8327622480        7.2108561404       26.3389758722
  C         2.3370293898        5.7014050429       26.4506460473
  N         6.1818804261       -1.0657393675       28.0178361929
  C         5.3616008830       -0.5407371150       30.1380364989
  C         4.7460976108        1.6206003336       30.8871572945
  H         5.0626043921        3.2422408706       29.6987408030
  C         7.7245282855        1.9507612207       19.8970275474
  C        10.1387676394        1.6928985267       20.7435763423
  C         9.4928301753        4.4818474839       18.4764044153
  C         9.4552406880        5.7966819945       18.3987562214
  H         1.6326656986        5.0358363396       25.9779987603
  H         3.1675493668        5.1380338320       26.8964697732
  C         1.6166094485        6.3234929807       27.5786856784
  S         5.9050180073       -2.4768968836       28.7668740033
  N         5.3500013493       -1.9320661697       30.1681011674
  C         4.9369624862        0.1821314771       31.2471735117
  H         4.2652842275        2.2459376180       31.5876304033
  H         7.1877953058        1.2857253291       20.5183708811
  H         8.1040659948        1.2608784019       19.0905845029
  C         6.7284378342        2.9444084223       19.2201528681
  H        10.1522197935        0.9169685248       19.9433621219
  H        10.0360959179        1.2293439483       21.6989093172
  C        11.4422967524        2.3610684682       21.1141416699
  H         9.7425651326        3.7414122240       17.7252884619
  C         9.8398058754        6.6255209370       17.1520797209
  H         0.7266669280        6.8462931647       27.1224649875
  H         2.2452542700        7.0906968243       27.8305503475
  C         1.4829815063        5.3467798000       28.8471490560
  C         4.7176695922       -0.5483726316       32.4656791448
  H         7.0629150119        3.2239680061       18.2501971792
  H         6.3818430417        3.7719305236       19.8489955614
  C         5.5403759978        2.0097285911       18.7883432349
  H        11.2723715431        2.9650099590       22.0125440729
  H        11.8829706408        3.0579222721       20.3845835394
  C        12.5063142323        1.3086349335       21.4710333307
  C         9.8407803184        8.0175755996       16.9134250568
  C        10.2241881920        5.8432153115       15.9766877228
  H         0.5298850782        4.9003048914       28.6711034422
  H         2.2488123990        4.5872356883       28.8861699975
  C         1.4263482194        5.9508419958       30.2601438605
  H         5.0723234096       -1.5708669724       32.4551735633
  C         4.3461802091       -0.1174077823       33.6935607083
  H         4.9982978925        1.7326288848       19.6609831974
  H         5.9968099067        1.1405075174       18.2914910804
  C         4.6546712704        2.8358623393       17.7920864365
  H        12.0845683992        0.6213859022       22.2006536757
  H        12.7917228981        0.6633101515       20.5931329091
  C        13.9043662476        1.8103868812       21.8372620678
  N         9.5242150583        8.9074160487       17.8975571720
  C        10.2217146066        8.6799323711       15.7342209046
  C        10.5398361011        6.4428980015       14.7364501331
  H        10.2038103199        4.7078629072       15.9910123609
  H         1.1512516581        5.2192671586       30.9607335394
  H         2.4563517117        6.2713541114       30.3499615464
  H         0.6591704354        6.7574904880       30.3901795021
  S         3.8492190775        1.4534716026       34.0932001516
  C         4.2825753367       -1.0762914316       34.8458035148
  H         4.6143861050        3.8376445252       18.1014899604
  H         4.9791703486        2.7657476021       16.6746377408
  C         3.2070569014        2.3925917963       17.7131963448
  H        13.9164337642        2.7713751505       21.3598259157
  H        14.5750002162        1.1138663314       21.4188056840
  C        14.3431334394        2.1668371042       23.3298526281
  S         9.5016499198       10.4126421132       17.3520894078
  N        10.1651436643       10.0942290427       15.9110455410
  C        10.5781362982        7.9462226958       14.5929531491
  H        10.6756463272        5.9369679953       13.8168489802
  C         3.8019280463        0.8632287226       35.7671977944
  N         3.9644102476       -0.4602037866       35.9742062590
  O         4.5248768158       -2.2859933145       34.7423060900
  H         2.7804390635        3.0874308742       16.9867040272
  H         2.6619888176        2.4956571739       18.6286427945
  C         3.0366986647        0.9874098359       17.1937077423
  H        13.6346364610        2.9719649915       23.8243364547
  H        14.3087832043        1.1921530382       23.8258435423
  C        15.6727183186        2.8181104791       23.3385882862
  C        10.8675675895        8.5039433587       13.3670570244
  S         3.4525485371        1.8795775746       37.0819017158
  C         3.8228591929       -1.2063771054       37.2007191709
  H         2.1318518990        1.0386199279       16.5591814246
  H         3.7550392335        0.6229012037       16.5047334196
  C         2.7710083433        0.0181169631       18.3244575670
  H        15.6642573676        3.4986228394       24.2185593136
  H        15.6738730612        3.5781719538       22.5414534930
  C        16.8694122917        1.8724066585       23.3950534324
  H        10.6763527978        9.5938409897       13.3188180893
  C        11.4721260145        8.1883947868       12.1809305195
  H         3.4112971519       -0.5857493599       38.0245992547
  H         3.2637520057       -2.1129088339       37.1648217391
  C         5.3186269408       -1.5219445707       37.5797812674
  H         2.0667799187        0.4149969977       19.0204648446
  H         3.6181784629       -0.3306840751       18.8510733334
  C         2.1724281931       -1.3009646621       17.7850120413
  H        17.0388306629        1.4710199896       24.3948091931
  H        16.8545752348        1.0446745627       22.6297236170
  C        18.2186881066        2.4358436991       23.0531738223
  S        12.0230663748        6.6058896868       11.6901517846
  C        11.4746101472        9.2207029167       11.1096911262
  H         5.2040151550       -2.1872092254       38.3649221525
  H         5.8081423218       -1.9707323781       36.7050376994
  H         5.8789559796       -0.6562301526       38.0041190802
  H         1.5548186698       -1.6925350805       18.5810254081
  H         2.8856029829       -1.9858623855       17.5080441028
  H         1.6239784285       -1.1460288865       16.8626958360
  H        18.5738432210        3.2568861932       23.6838098910
  H        18.2351622676        2.8500063871       22.0816011199
  H        19.0121417104        1.7085801905       22.9460619484
  C        12.3075773834        7.3153039672       10.1599684424
  N        12.0246146675        8.6150349240       10.0035336399
  O        11.2299300038       10.4891802238       11.2711344952
  S        12.8716505208        6.3679957424        8.7821740720
  C        12.2651155487        9.3221574020        8.7749559126
  H        12.5701333562       10.2802944860        9.0800520016
  H        12.9604023093        8.8308836135        8.0676716870
  C        10.9964005983        9.5811300362        8.0105838141
  H        10.1412793737        9.1911563817        8.5133794437
  H        10.7289145466       10.6687549196        7.9822263889
  H        11.0855972810        9.1716935855        6.9786011719
  H         3.8126203642        1.3075631530       12.1420813886
  C         3.7092759080        2.2979742904       12.4340957046
  H         4.7042651132        2.7576291522       12.4853122368
  C         2.9933055706        2.9227235060       11.2247415047
  C         3.0075883520        2.3347789275       13.7873442650
  C         3.8220215683        2.9494202638        9.8969248931
  H         2.7439583375        3.9103402499       11.5670358811
  H         1.9961096274        2.4512431024       11.0268433155
  H         2.0273883615        1.9393848115       13.8128450508
  H         2.9208644040        3.2753166773       14.2308892078
  H         3.6397494068        1.5721843510       14.3851272956
  C         4.4343415823        1.6414409538        9.4123541581
  H         3.2778996841        3.6009413039        9.1851775240
  H         4.6822215284        3.5923941487       10.1585082067
  C         5.1346837582        1.7491256707        7.9960229806
  H         3.7041986706        0.8656509736        9.3079558428
  H         5.1544823521        1.3894630383       10.2260466382
  C         6.4116072514        2.6231444786        8.0724713151
  H         4.3879631760        2.1835189153        7.3108244243
  H         5.3350024964        0.6667641329        7.7649974119
  C         7.6068678606        1.9809799574        8.7706710278
  H         6.6773578285        2.9450281114        7.0718801871
  H         6.2006706677        3.5324909378        8.6804903724
  C         8.8138661879        2.8900852473        9.1270343934
  H         7.8688907734        1.1226559035        8.2246435463
  H         7.3143872253        1.6050910160        9.7126118991
  C         8.5472395523        4.2212709595        9.9225509987
  C         9.3420969664        3.6308180858        7.9890929077
  C         9.9227192055        2.0484338833        9.7433063677
  C         8.7328054966        5.3016284213        9.1228183295
  C         8.1077039264        4.4777354804       11.2028377528
  C         9.3346614694        4.9629752889        7.9344780905
  C         9.9700158736        3.1312750928        6.8451233983
  H         9.5017564324        1.5686334630       10.6654543744
  H        10.1522506640        1.3245875531        8.9873835316
  C        11.1148198307        2.8447377672       10.0973572648
  S         8.3894670790        6.8222502213        9.9202064742
  C         7.9931851225        5.8404076818       11.3885230367
  H         7.9612713512        3.5954869724       11.8757382529
  C         9.7560115485        5.7426434867        6.8837431985
  H        10.0913871832        2.0621740152        6.6735134544
  C        10.3074193424        3.7992665845        5.7531923509
  H        10.8270965407        3.8215960343       10.4299055200
  H        11.5475637383        3.0080628781        9.1659402844
  C        12.1724964672        2.2167963894       11.0110648256
  C         7.5785273066        6.5007362994       12.6489512844
  C        10.1683580014        5.1309444632        5.6636500433
  H         9.6242663583        6.8459422387        6.9327706317
  C        10.7005810813        3.4795648113        4.4395079282
  H        13.0063346707        2.9024316691       11.0027732689
  H        12.5577760563        1.3523002101       10.5269043986
  C        11.7407624718        2.2312948387       12.4772974477
  C         7.6667901985        7.9175890985       12.8720458690
  C         7.1210496483        5.7158071877       13.7819203152
  C        10.5305375926        5.8749415177        4.4158665325
  C        10.8736830722        4.5981760617        3.6357109262
  S        10.9857190887        1.9243291473        3.6013139828
  H        11.1450820074        3.1473237590       12.6016476981
  H        11.0714176786        1.3664639587       12.6526428689
  C        12.9663190247        2.1003166985       13.4503495348
  N         7.7866676819        8.9463086439       11.8937988069
  C         7.3404727191        8.4343065601       14.0977566116
  C         6.6548174221        6.2398933554       14.9907492075
  H         6.9829446036        4.6456651788       13.5586202878
  C        11.8298243020        6.6726316813        4.5071216185
  C         9.4034785448        6.8426900781        3.9599755332
  C        11.2801584039        4.1880609453        2.3882916116
  C        11.4270842377        2.8123218550        2.2067038624
  H        13.6809887577        2.8126906569       13.1320368950
  H        13.4075501788        1.1292815396       13.3726399904
  C        12.4844279685        2.2781445970       14.8832242810
  S         8.0280852883       10.3400635901       12.7672950368
  N         7.4752430030        9.8315864441       14.1829481278
  C         6.8819295514        7.6927860982       15.1766017121
  H         6.0754093981        5.5918217298       15.6516488241
  H        11.6808362386        7.4799700741        5.2732615595
  H        12.0222259866        7.1569349375        3.5517038833
  C        13.0934749275        5.9077209534        4.9801527126
  H         9.0639810051        7.5653937657        4.8158645591
  H         9.7713318980        7.4374363835        3.1565205754
  C         8.3773390775        6.0986906729        3.1182268754
  H        11.3652562178        4.9710048918        1.6175277512
  C        11.6299520495        2.1316853600        0.8806945831
  H        12.2559786472        3.2999780527       15.1649979814
  H        11.6690173921        1.6759685659       15.1168713313
  C        13.5400522619        1.9113423168       15.8924844465
  C         6.5582769634        8.4243014668       16.4353784207
  H        12.9411796400        5.3476841120        5.8708303828
  H        13.4098218708        5.2398698680        4.1657746209
  C        14.3087267450        6.8194594353        5.2443985419
  H         8.1068523875        5.1232264286        3.5677618517
  H         8.9003457138        5.8204061739        2.2353577607
  C         7.0687226962        6.9043196007        2.6504001870
  C        11.6852377452        0.7514011868        0.6055894345
  C        11.8021067705        2.9466192863       -0.3435403165
  H        14.4070418974        2.5045509989       15.9340632171
  H        13.7882857142        0.9047244353       15.5600424466
  C        13.1558948285        1.9722673681       17.3591278270
  H         6.7965830414        9.4596794516       16.4654279914
  C         6.3365162178        8.0973907976       17.6835400314
  H        13.9230584887        7.4708093520        6.0880860922
  H        14.4996023637        7.3812914758        4.2694918464
  C        15.5501908407        6.0297683752        5.4329988735
  H         6.6713385416        7.4491059737        3.5300810816
  H         7.5139664433        7.6775950018        2.0383501151
  C         5.8723917011        6.1929319293        2.0831859329
  N        11.2753022233       -0.2653015093        1.5349674267
  C        12.0087072244        0.1709722437       -0.6390066790
  C        12.0661284835        2.3810549031       -1.6156774758
  H        11.6322814703        4.0194318178       -0.2536351025
  H        13.7434290325        1.4832612446       18.0049049182
  H        12.1021684955        1.7835034717       17.5377018971
  H        13.2199330211        3.0721092851       17.5956906737
  S         6.0569985553        6.4634828404       18.2267662074
  C         6.3176901874        9.0892481868       18.7750109414
  H        15.5264312409        5.0920398021        4.8479787400
  H        16.3991580678        6.4901557123        4.8416111453
  C        15.9892744619        5.8136512722        6.8254786296
  H         5.4788817588        5.4347804057        2.7325490751
  H         6.1848815669        5.6725433704        1.2089562620
  C         4.7245416840        7.1473011708        1.5945148523
  S        11.4762841005       -1.7504671117        0.8224790512
  N        11.9370223345       -1.2365855040       -0.6115604242
  C        12.2509854615        0.9299186839       -1.8104057448
  H        12.0284130583        3.1018723293       -2.3859607017
  C         5.8003543813        7.1448096519       19.8299364800
  N         5.9905757474        8.4802119121       19.8895479842
  O         6.4567469416       10.3022759129       18.6195226598
  H        15.6826799859        6.6166137090        7.4736491864
  H        15.5053660821        4.9038677127        7.1230719716
  C        17.5302824744        5.4865519992        6.9612152072
  H         5.1037869441        7.5893290324        0.6361651598
  H         3.7757087942        6.5773538558        1.3027630430
  C         4.3158522905        8.3790454753        2.4581255658
  C        12.6364841194        0.3556039603       -2.9673654325
  S         5.4006740836        6.1205462401       21.2296649897
  C         5.7955369030        9.1444159750       21.2200005957
  H        17.8264448217        4.9335386435        7.8594438478
  H        17.7515783888        4.6017494125        6.2773553576
  C        18.4721477451        6.6800341809        6.6221074469
  H         5.1288172844        8.9930734648        2.8070038408
  H         3.9864972014        8.0193499729        3.5188752210
  C         3.1779513870        9.1916053663        1.8189254035
  H        12.2290114167       -0.6373959266       -3.0292905410
  C        12.9276383452        0.6944131044       -4.2044180952
  H         5.1448728465        8.6110704960       21.9534185579
  H         5.3895085933       10.0151605015       20.9832498175
  C         7.2862397979        9.3510886562       21.5688645835
  H        17.9822270197        7.5689374241        7.0872891000
  H        18.4723124076        6.9927038260        5.5692854808
  C        19.8720369287        6.2302215158        7.1102057108
  H         2.3710351420        8.6354214225        1.5061762448
  H         2.7686525202        9.7539785015        2.6722386056
  C         3.6800453759       10.2225776272        0.9197067371
  S        13.6087944999        2.1761071680       -4.8295996671
  C        13.1558748279       -0.4182505953       -5.1797622157
  H         7.6517466572        9.3151842884       22.6445141199
  H         7.7372500795       10.2298569469       21.0577331045
  H         7.7974176256        8.5152121940       21.0893233281
  H        20.5724767781        7.0191100406        7.0445314680
  H        19.8753979403        6.0743023898        8.1351792299
  H        20.1696350135        5.3403078672        6.6093892480
  H         3.4607107347       11.2033055558        1.3926369002
  H         4.7359731984       10.0358516474        0.9849035252
  H         3.4839697738       10.1138303895       -0.1193341749
  C        13.9429862234        1.3398364817       -6.3701698842
  N        13.7403857079       -0.0204906882       -6.3344177123
  O        12.8538348542       -1.6204015959       -4.9128243993
  S        14.6188908021        2.0302680950       -7.8201405519
  C        13.9796051401       -1.0192566987       -7.4014946432
  H        14.0672117604       -1.9904361092       -6.9566880461
  H        14.9399058252       -0.7321942969       -7.8607558386
  C        12.7950002291       -1.0030807297       -8.4168758410
  H        12.1671944586       -1.9294441582       -8.3306174862
  H        13.1875478231       -0.9451017748       -9.4209912154
  H        12.0579018645       -0.1352717207       -8.2601164118
