352
 i =   107700, time =    53850.000, E =        99.4964820687
  H        10.0816739498        4.9598317458       31.2538048810
  C        10.3451928712        5.9867721382       31.5387868461
  H         9.4807982503        6.5471115483       31.3612932522
  C        11.6040260111        6.4381606552       30.7838817995
  C        10.6282710589        6.0315735918       32.9908749643
  C        11.2456586222        6.7135924857       29.3428665394
  H        12.0781283408        7.2780202342       31.1995611870
  H        12.2428129982        5.6016421860       30.7016573753
  H         9.6896562190        6.2401574783       33.5443515090
  H        11.0381342905        5.0773435023       33.3066240110
  H        11.4761428854        6.7301793788       33.1583811315
  C        10.8495184825        5.4579738856       28.5641099573
  H        12.1102418780        7.2096483159       28.9806801342
  H        10.4815632891        7.5180587133       29.2359828957
  C        11.0829938856        5.5798252191       27.0449203498
  H        11.3912874825        4.5052738340       28.9972074348
  H         9.8760972014        5.2141393239       28.6889809270
  C         9.8867496808        5.0895566202       26.2606698151
  H        11.9296676308        5.0206625858       26.7433256287
  H        11.2111327394        6.6631628833       26.7320411547
  C         8.6597113472        6.0335785192       26.1958135554
  H        10.2584095160        4.8066106501       25.2324442997
  H         9.6075767688        4.2360390311       26.8259492246
  C         7.3041777208        5.4182751730       25.6468048911
  H         8.5052821974        6.5295028745       27.0943898534
  H         8.8776066607        6.9028877764       25.5910141554
  C         6.9382606949        4.0778499392       26.3390618220
  C         7.6678121396        4.6964692910       24.3383822362
  C         6.1943247385        6.5179669847       25.3536184151
  C         7.2224327814        3.0075536869       25.5516726262
  C         6.4357001811        3.7360897205       27.6121492036
  C         7.6868941494        3.3424041254       24.3143880903
  C         8.1217307675        5.2688594331       23.1397068907
  H         6.4673623993        7.2898864055       24.6103445110
  H         6.0443036515        7.0073017650       26.3007941491
  C         4.8460444730        5.9228721769       24.8048985460
  S         6.9361007849        1.5181013954       26.3486958534
  C         6.3778902621        2.3719788831       27.7244993441
  H         6.1752662135        4.5101396641       28.2977662242
  C         8.0261115933        2.6926701646       23.1327992712
  H         7.9972036039        6.3164904612       23.1222492611
  C         8.4429438748        4.6096939632       22.0106320628
  H         4.9994354164        5.5293133254       23.7774493952
  H         4.4774489729        5.0495752917       25.2664787706
  C         3.6041072458        6.9113561975       24.8860428581
  C         5.9999809075        1.5895907779       28.9827985003
  C         8.4528752094        3.2717471736       21.9646511254
  H         8.0281231216        1.5930097629       23.0807469077
  C         8.9145998501        4.9813710677       20.7341637028
  H         2.9361178794        6.7590138867       24.0405758832
  H         4.0452777866        7.9585859844       24.6657273882
  C         3.0034684065        6.9547112196       26.2936135140
  C         6.0057608059        0.1688990882       29.1163274855
  C         5.5739342516        2.3483284967       30.2045156019
  C         8.8908794153        2.6076323712       20.6841315902
  C         9.2320906125        3.8907954241       19.9554626530
  S         9.2721289628        6.4128582339       19.9428526238
  H         2.4435142377        7.9135129276       26.3100444652
  H         3.7510103440        7.0154161638       27.0922559345
  C         2.0013517890        5.8085250739       26.5614647837
  N         6.3593309637       -0.7853126840       28.1306804558
  C         5.6756963187       -0.4319297053       30.2920695452
  C         5.2037088378        1.6760522449       31.3623802230
  H         5.5039854767        3.3694113866       30.1357881927
  C         7.8022504534        1.7850463369       20.0062441816
  C        10.1875468907        1.7838905752       20.8310768541
  C         9.7851501014        4.2103376156       18.6937078491
  C         9.8216616751        5.5827910396       18.5187167239
  H         1.4761901339        5.6261357968       25.6563976168
  H         2.5422935252        4.9648427158       26.9251996594
  C         0.9421789843        6.2062233760       27.6181612520
  S         6.2618507509       -2.3204093253       28.6977253142
  N         5.9475507194       -1.8162868172       30.2093565904
  C         5.2741791423        0.2192203490       31.4754757629
  H         4.9834679176        2.2588501584       32.2206776512
  H         7.5472351773        0.9499245139       20.7359958111
  H         8.2601735148        1.3289738099       19.1520258737
  C         6.5318741136        2.4762401481       19.5348125056
  H        10.4178472854        1.3198770644       19.9102008726
  H         9.9989821717        0.9406824219       21.5068152148
  C        11.4760058860        2.5841776924       21.1396344588
  H         9.9611248410        3.4172840324       17.9989593263
  C        10.1587104285        6.3682649103       17.2827859406
  H         0.2298816081        5.3640083942       27.6692858435
  H         0.4017594614        7.1675214340       27.3153800213
  C         1.5999571510        6.3888927434       29.0129075648
  C         5.0226709756       -0.5027709717       32.6974290056
  H         6.6657529818        3.1549823839       18.6145950715
  H         6.2004625991        3.1838440033       20.3077400237
  C         5.4000381282        1.5154335741       19.2056149099
  H        11.1869821948        3.3690598343       21.8609602517
  H        11.8406927982        3.2088110139       20.2868254962
  C        12.5016862478        1.6552129180       21.7602897456
  C        10.1419429682        7.7527786139       17.1367523979
  C        10.4111750749        5.5751154171       15.9520560755
  H         2.4271690504        7.0689261322       28.8875922333
  H         0.9750144804        6.9156771202       29.6392387415
  C         2.0811139906        5.0367307007       29.4857067240
  H         4.9378300085       -1.5927188738       32.5942990130
  C         4.7771505088       -0.2659736615       34.0073265002
  H         4.9492667935        1.0305292033       20.0900210622
  H         5.7272450368        0.6818274339       18.5918615489
  C         4.3274948788        2.0806613375       18.2726112190
  H        11.9695395925        0.9437061298       22.4532235122
  H        12.9535852661        0.9537244701       21.0834538067
  C        13.6418012125        2.1971545675       22.6589681561
  N         9.7726770032        8.6614340424       18.1607505649
  C        10.4392782437        8.4344178607       15.9933162210
  C        10.7621959465        6.3439243559       14.8297645386
  H        10.3343816038        4.4586794801       15.8274238461
  H         2.2885477115        5.0727751280       30.5100412474
  H         1.3045450455        4.3171824729       29.3538074731
  H         2.9408490042        4.7171738108       28.9786829863
  S         4.3950974970        1.2780463491       34.7120485912
  C         4.6357436182       -1.4520833709       34.9098780795
  H         3.6653521966        2.8430517841       18.6908373576
  H         4.8217261841        2.8368403380       17.7368620375
  C         3.6546661605        1.2077324087       17.1982137883
  H        14.2353637874        1.4117581488       23.1835599294
  H        13.2221490345        2.8676948034       23.3304031658
  C        14.6806113422        2.9182480729       21.8044845716
  S        10.1283779592       10.1699727740       17.7675282387
  N        10.5127354693        9.8241770896       16.2142170148
  C        10.7531362387        7.8328827312       14.7507080400
  H        11.1544546035        5.7784333349       14.0271575588
  C         4.1783629966        0.3269216866       36.2429450525
  N         4.3399773205       -0.9793121380       36.1370705749
  O         4.8441186661       -2.6079146583       34.5910683576
  H         4.4632464792        0.9156456193       16.4949756769
  H         2.9511249088        1.7802191437       16.6949257508
  C         3.0247672316       -0.0510809392       17.9264973278
  H        15.1542715418        2.2910099941       21.1134398435
  H        14.1995655789        3.5327056170       21.0412106340
  C        15.5912849953        3.7540431205       22.6913647958
  C        11.1958952986        8.6321185838       13.6776518523
  S         3.9813895903        1.1197265210       37.8255845758
  C         4.3938114870       -1.8479295349       37.2969543289
  H         3.7809721308       -0.8102415834       18.2476391892
  H         2.4948923629        0.2509338844       18.8517947381
  C         1.8730756409       -0.7028614555       17.1589931042
  H        15.2325257071        3.6341714289       23.7071122890
  H        15.2370173908        4.6908645898       22.3070191613
  C        17.0174157138        3.5226936892       22.3500556455
  H        11.1743165184        9.6830636870       13.9786870824
  C        11.6053177482        8.3431556613       12.4008567983
  H         3.5220031655       -1.6921137754       37.9669536350
  H         4.2722776670       -2.8356552820       36.9647266643
  C         5.7518100012       -1.7395940250       38.0755525732
  H         1.7969637902       -0.2872838370       16.1389292467
  H         0.8699659159       -0.5892953847       17.5955134664
  C         2.1573261996       -2.2054093633       16.9242479987
  H        17.0907563224        3.2335350746       21.3437849298
  H        17.5210530619        4.5024542503       22.4462160525
  C        17.7776227502        2.5000019566       23.2472702045
  S        11.8331283361        6.8378773200       11.7051967381
  C        11.7779210154        9.5029327021       11.5385503977
  H         5.7820400656       -0.9882009893       38.8570605779
  H         5.9811897757       -2.7037919214       38.5489848751
  H         6.5828853041       -1.4765748982       37.4181264618
  H         1.2919544424       -2.6341589856       16.4015716155
  H         2.2283692273       -2.7235881632       17.8598316041
  H         3.0000483094       -2.3721414168       16.2408094237
  H        18.7369203930        2.1782655945       22.8292836953
  H        17.1625342115        1.5993163283       23.5322869092
  H        17.9190058637        2.9423420612       24.2228157629
  C        12.0502090400        7.7034992707       10.1996299295
  N        12.1156488914        9.0429884198       10.3479295200
  O        11.7452318254       10.6808536747       11.9364088747
  S        12.5548062191        6.9331903991        8.7031424895
  C        12.2778702317        9.9549126850        9.2624305845
  H        12.4485010202       10.8971061770        9.7393000592
  H        13.0968537893        9.8511168903        8.5965579126
  C        10.9901520867        9.9723843314        8.5224708095
  H        10.9237875252        9.1825970147        7.7846526038
  H        10.2172290328        9.8619630140        9.2232747348
  H        10.7438082660       10.9407375015        8.0597624926
  H         3.0140037228        3.8888762908       11.9468516391
  C         3.0955429079        2.8460218621       12.1754409379
  H         2.2002741430        2.4021416280       11.7599140653
  C         4.1457449362        2.0982367822       11.4900861447
  C         3.1860448178        2.5668253810       13.7103192043
  C         3.8953228046        2.1758339333        9.9940763290
  H         4.0317451327        1.1105738731       12.0323276498
  H         5.0993144732        2.4456109362       11.7759087299
  H         4.1497491247        2.8427391393       14.1033501339
  H         2.9930943690        1.5761503455       14.0575049053
  H         2.4501119661        3.1820807982       14.1406423086
  C         4.6316332700        1.0229223167        9.3216477828
  H         2.8322143028        2.2273709452        9.7907192221
  H         4.2477047095        3.0803774051        9.6257957613
  C         5.5245334293        1.4378593047        8.2167471117
  H         4.0181286676        0.2385250416        8.8810153547
  H         5.2683117860        0.5593628175       10.0722464638
  C         6.6044621515        2.5076298671        8.4477911202
  H         4.8535836237        1.8791570877        7.4402452442
  H         6.0169998539        0.5872045161        7.7693556156
  C         7.9230434300        1.8472505004        8.9167639403
  H         6.7724563449        3.2413663703        7.6443939554
  H         6.1118376633        3.1935056541        9.1012039352
  C         9.1911592059        2.7404214016        9.0658298150
  H         8.0955916454        0.9427686936        8.2935950511
  H         7.7090469814        1.3656340779        9.8366406335
  C         8.8175954114        4.0916401506        9.7272010052
  C         9.5849744865        3.4107888269        7.8287500413
  C        10.3213748406        2.0809067525        9.8479164728
  C         9.1586212770        5.2074963284        8.9271016456
  C         8.3718768899        4.5122737386       10.9994655243
  C         9.5655098444        4.7737084920        7.6990653223
  C        10.0379130312        2.8250633894        6.6281345302
  H         9.9391593315        1.7247245694       10.7750156557
  H        10.6851374255        1.2616841209        9.2485726857
  C        11.5659565466        2.9762105672       10.2133508495
  S         8.7383459280        6.6922350699        9.6741814124
  C         8.3614061414        5.8600882950       11.1578252603
  H         7.9860814356        3.6845537343       11.6088500777
  C         9.9093475885        5.4103853256        6.5796857892
  H        10.0046256290        1.7307777318        6.4963490642
  C        10.4512572322        3.4486519946        5.4982281967
  H        11.3087137813        3.9204283270       10.5944158891
  H        12.1209250803        3.2550639074        9.3557885418
  C        12.5790961386        2.3561073452       11.2426333246
  C         8.0162523137        6.5998940089       12.4064287730
  C        10.3726550783        4.8102432952        5.3662734497
  H         9.7283616713        6.4770908918        6.6784845526
  C        10.7349603236        3.0464000353        4.2177092992
  H        13.5131934550        2.8070219024       11.4012487625
  H        12.7895606696        1.3628111888       10.8755968871
  C        11.9713022533        2.1122804747       12.6691862983
  C         7.9940550927        7.9958123824       12.6599893850
  C         7.5419546629        5.7280028602       13.5663448465
  C        10.6926366625        5.4909775135        4.1245472362
  C        10.9428851700        4.1459442633        3.3803317691
  S        11.0226286855        1.5157617163        3.5369276064
  H        11.1968053722        2.7108854888       13.0032722646
  H        11.7379035746        1.0333452669       12.7555234590
  C        12.9736498159        2.3621907014       13.7528824042
  N         8.2280020547        9.0033796707       11.7342151530
  C         7.7638928002        8.5050432659       13.9039329347
  C         7.1835984432        6.2073229336       14.7895266613
  H         7.4138257233        4.7102690104       13.4012515252
  C        11.9972491842        6.3602652263        4.3836296463
  C         9.5409880516        6.2091770215        3.4747281187
  C        11.3430506441        3.6592124927        2.1271960628
  C        11.4367965456        2.2893950813        2.0986567982
  H        13.5484065611        3.2267034939       13.4615695406
  H        13.5895422329        1.4973639113       13.6772437078
  C        12.4246276519        2.3834475131       15.2510970011
  S         8.2437219839       10.4196008153       12.5401079592
  N         7.9498076244        9.9146479085       14.0032467630
  C         7.2924828897        7.7083001141       14.9848771984
  H         6.5676145812        5.5955171986       15.4043334912
  H        11.8158246577        7.2099832741        5.0968000382
  H        12.1601571325        6.7614003595        3.3558810662
  C        13.2972245217        5.7078220642        4.7448330074
  H         9.2568932966        7.0440812009        4.0957385184
  H         9.8730681036        6.6185159256        2.5541168693
  C         8.1419445560        5.5161220815        3.2400472542
  H        11.5465908681        4.4002794566        1.3382978771
  C        11.7061435857        1.5250071128        0.8321987853
  H        11.7716583864        3.2404806829       15.4303816191
  H        11.7425105229        1.4914579645       15.3345308479
  C        13.5363998124        2.5817331394       16.3349025017
  C         6.7573921947        8.4347945262       16.1219259630
  H        13.1342072589        5.2284386862        5.7135602613
  H        13.5948127025        5.0535123960        3.9791349942
  C        14.4668909465        6.7620650339        4.9731324815
  H         7.8759611689        4.9809097667        4.1587580886
  H         8.1732894773        4.7987402230        2.4197379387
  C         7.0562841243        6.4417573377        2.9525310763
  C        11.7050460933        0.0891111323        0.6375518376
  C        11.8820338522        2.2200901714       -0.4299248218
  H        13.9153442154        3.5847098977       16.1872103451
  H        14.3378594907        1.8390509210       16.3136843570
  C        12.9592526002        2.6215934606       17.8264084088
  H         6.7296260128        9.4567800359       16.0288647149
  C         6.4380477720        8.0608065768       17.3936422798
  H        14.1458472886        7.3538983761        5.8052363303
  H        14.5258544544        7.3559740658        4.0681941214
  C        15.8093353660        6.0820532235        5.2432655736
  H         6.8456120870        7.0297870844        3.8149499842
  H         7.4770766082        7.1604439886        2.2562738301
  C         5.8011247716        5.7605958303        2.3487294814
  N        11.4586213375       -0.8215202190        1.6786867106
  C        11.9698671120       -0.5878154277       -0.5570494501
  C        12.1372475226        1.5764894488       -1.6389977024
  H        11.9384110272        3.3125881032       -0.3854898775
  H        13.4674088502        2.0022571051       18.5666521007
  H        11.9376194206        2.2778003085       17.7156303402
  H        13.0854270652        3.6719445369       18.1326035654
  S         6.4412163031        6.3948050093       17.9576688502
  C         6.1340909304        9.0635199429       18.4320231780
  H        15.8862804127        5.1956332039        4.6296509933
  H        16.5291679214        6.8017146101        5.0095043570
  C        15.9443803276        5.6176448651        6.7603434526
  H         5.6620906799        4.8377438783        2.8974673479
  H         5.9749091691        5.4198162316        1.3784668051
  C         4.5850554623        6.7028445221        2.3849195280
  S        11.2919894608       -2.3277770496        1.0087167271
  N        11.9175943260       -1.9688646887       -0.4636615238
  C        12.3472962689        0.0845744547       -1.7275046887
  H        12.4594643708        2.2598481847       -2.3818337555
  C         6.1038392638        7.0544733820       19.5821982052
  N         5.9714938832        8.3993755704       19.5502578712
  O         6.1553521973       10.2983091176       18.3157310477
  H        15.7506611724        6.5262908375        7.3936774429
  H        15.0822319067        4.9717052935        7.1134801116
  C        17.2427259093        4.8715927216        7.0248950135
  H         3.6407590875        6.1630189844        2.1800865249
  H         4.6317180189        7.2810935926        3.2815989745
  C         4.6447167397        7.6295644316        1.2083589198
  C        12.7185288043       -0.6822814156       -2.8679160058
  S         5.4908464685        6.1926613682       21.0066009958
  C         5.6586188658        9.1132214778       20.8185487700
  H        17.3363688014        4.4348357793        8.0261826398
  H        17.2773648447        4.0290300684        6.3339679276
  C        18.4174494677        5.8392895849        7.0139087516
  H         4.4544649576        7.0442103341        0.3439889186
  H         5.6432560529        7.9943156389        1.1874383510
  C         3.6160801826        8.7214926892        1.3542772552
  H        12.6174999773       -1.7647543695       -2.7293205591
  C        13.2189973298       -0.2362025968       -4.0660430944
  H         4.9704793232        8.6011046456       21.5339673946
  H         5.1722753629       10.0838728693       20.7239837412
  C         6.9533460645        9.4997672328       21.5807850013
  H        18.9394292918        5.7499842326        7.9943961341
  H        18.3412853750        6.9476850584        6.9219600710
  C        19.3011537758        5.3707324905        5.9343045154
  H         3.4645434736        9.1009196774        0.2869737854
  H         2.6630783082        8.4969430630        1.7566118581
  C         4.1746192640        9.8371045336        2.1585424814
  S        13.6425645480        1.3360491503       -4.4319799024
  C        13.3039374486       -1.2415717196       -5.1325257522
  H         7.2035165908        8.7379753848       22.3290377210
  H         6.9205614381       10.4616715316       22.1529488443
  H         7.7303156200        9.5258974985       20.8635065427
  H        18.9418345605        5.5957733280        4.9026614549
  H        20.2902066168        5.7647778165        6.0691709143
  H        19.4584874254        4.3299914850        6.0161158668
  H         5.1270002040       10.2282137634        1.7335089530
  H         3.5237410797       10.6016440820        1.9966857338
  H         4.3319113381        9.5583669862        3.1824715488
  C        14.2498851460        0.6689427715       -5.9920132899
  N        13.9091767042       -0.6450179378       -6.1408378135
  O        12.7671297157       -2.3667022881       -5.1012463109
  S        14.8571167773        1.6818750051       -7.3716234683
  C        14.0602566542       -1.3914604447       -7.4020744089
  H        13.9594856262       -2.3617555572       -7.0998548239
  H        15.0765380196       -1.2486078284       -7.8245655326
  C        12.8022247798       -0.9655713893       -8.2652876803
  H        11.7475870487       -1.2113781283       -7.8374755577
  H        12.9898491233       -1.3062261691       -9.2734613654
  H        12.7448233151        0.1086921508       -8.5105450385
