352
 i =    89800, time =    44900.000, E =        99.1345266119
  H        12.5873395016        6.5677033758       32.6406238983
  C        12.0484848653        5.6430865622       32.5053964395
  H        12.8593345183        4.8105811056       32.3441905095
  C        11.0502119612        5.7956271908       31.3974282640
  C        11.3372759268        5.2198506743       33.8163724383
  C        11.6961827081        5.9084394450       30.0667119178
  H        10.2030861615        5.0850295466       31.2720516497
  H        10.4746990004        6.7675949727       31.5853043089
  H        12.0475477253        5.1218508596       34.6606013755
  H        10.6124554748        5.9608950580       34.1461289549
  H        10.6936522957        4.3501249544       33.7417712121
  C        10.5983201458        5.9110192886       29.0346551024
  H        12.5470339634        5.2583273463       29.8311289559
  H        12.1165492733        6.9120357111       30.0736119817
  C        11.0640294044        5.4689752478       27.6473952467
  H         9.8542871901        5.1186447540       29.2359882059
  H        10.0283004918        6.8696563718       29.0813028570
  C         9.9398519014        4.9696923099       26.7573183037
  H        11.8807442550        4.7502204871       27.6852726450
  H        11.3829665662        6.3534271183       27.2056934254
  C         8.7322869846        5.9016768509       26.4826157505
  H        10.4851893124        4.5449415410       25.8788189293
  H         9.6308601272        4.1223626250       27.3294397015
  C         7.5431548396        5.2894523532       25.7226405819
  H         8.3870240125        6.4711154524       27.3461699994
  H         9.2464352259        6.6404788228       25.9022157486
  C         7.1466512365        4.0041770759       26.3818393296
  C         8.0015408698        4.5554758857       24.5164920984
  C         6.3661980858        6.3002731529       25.4918600297
  C         7.2783625450        2.8594678024       25.6087397609
  C         6.5432038525        3.7287991159       27.6343686365
  C         7.8891291902        3.2166047357       24.4571997591
  C         8.4890378319        5.1118397862       23.3736880358
  H         6.5693912221        7.0609855840       24.7466099999
  H         6.1371876854        6.9824309401       26.4026798832
  C         5.0909832759        5.5677871743       25.0517726727
  S         6.6952510817        1.3958414095       26.3563723971
  C         6.4404057834        2.3603313452       27.7962339397
  H         6.4045617513        4.6304403918       28.2929814852
  C         8.2741475155        2.5372082092       23.3058009234
  H         8.5135458431        6.1814321444       23.3468565275
  C         8.8100485760        4.4753207322       22.1943602009
  H         5.3331756969        5.0686438147       24.0981825671
  H         4.8257174141        4.7661975776       25.7675441128
  C         3.9385744743        6.4697534623       24.8850796823
  C         5.9025987277        1.6908438334       29.0694329498
  C         8.7381422126        3.1425943521       22.0743518801
  H         8.3883108377        1.5102201277       23.3267156176
  C         9.1875827068        4.9378798112       20.9183162553
  H         3.2271603723        5.8703235277       24.2998811142
  H         4.2611152010        7.2915026039       24.2868130658
  C         3.3258713233        6.7649834329       26.2022024480
  C         5.8095685008        0.3020936588       29.3673417375
  C         5.3646906328        2.6104623919       30.1161471741
  C         9.2027830318        2.4382124115       20.7876327912
  C         9.3510882570        3.8491453485       20.0618855651
  S         9.4073693474        6.4744993220       20.2347063885
  H         2.7922308838        7.7616483776       26.0700113212
  H         4.0747862872        6.8445709765       26.9888036993
  C         2.3118201331        5.6572036139       26.5559164979
  N         6.2059836126       -0.6996737464       28.4408436539
  C         5.4416120974       -0.2092240651       30.5757988197
  C         4.9634344032        2.0439599324       31.3992729814
  H         5.2873718071        3.6400168413       29.9722896563
  C         8.1180397650        1.5868127567       20.1485496666
  C        10.4377946007        1.6913477982       21.0134551300
  C         9.7144885962        4.3034519717       18.7828080502
  C         9.6297251537        5.6468071994       18.7198423043
  H         1.4978825484        5.7495220889       25.8146364119
  H         2.5906217693        4.6385755621       26.4091671112
  C         1.6672553793        5.8186677411       27.9802301923
  S         6.1812752595       -2.1614558685       29.2106036931
  N         5.6146607628       -1.5643709381       30.6377994807
  C         5.0271053724        0.5669765462       31.6433316311
  H         4.6879898204        2.6796865117       32.1876666440
  H         8.0382849544        0.6741950486       20.6343681877
  H         8.3149512255        1.4196276232       19.0913835833
  C         6.7072497395        2.2347187365       20.2346449200
  H        10.7995648816        1.1600987967       20.1763707345
  H        10.2363515290        0.9900955693       21.7485989096
  C        11.7015064648        2.5489650464       21.4350093928
  H         9.8609675018        3.5157968611       18.0509292693
  C         9.8251395073        6.4385562939       17.5034237507
  H         0.8504692352        5.0906983362       28.1050988105
  H         1.2818806293        6.8330529966       28.0321787624
  C         2.7759829292        5.5813000571       29.0271539810
  C         4.9172936721       -0.0912310715       32.8963842571
  H         6.6968843494        3.2487971356       19.9531867813
  H         6.2589140646        2.1653758021       21.2119004366
  C         5.7490001399        1.6863373879       19.1459632516
  H        11.4471528401        3.2651359529       22.2249356302
  H        12.0233221157        3.1161221574       20.5732248931
  C        12.8408493159        1.7406499080       21.9591077521
  C         9.8931946516        7.8580598134       17.2833932499
  C        10.0141640966        5.6670194315       16.2971377747
  H         3.2347923398        4.5959319412       28.9237383014
  H         3.5468156389        6.3679956346       28.9115641627
  C         2.0627845812        5.6569489026       30.3647849739
  H         4.9762542381       -1.1317818317       32.8632549681
  C         4.6593895026        0.3884960364       34.1761486519
  H         6.1714924544        0.7098322585       18.8795899955
  H         5.8115866536        2.3164108671       18.2317525589
  C         4.3052433003        1.5555785358       19.5714341385
  H        12.4405573645        0.9797376528       22.6401778924
  H        13.4273695578        1.1673555302       21.2767354741
  C        13.7153585365        2.6917953620       22.8648306592
  N         9.7112552187        8.8292601008       18.2986014167
  C        10.2523493063        8.5242905861       16.1041450479
  C        10.3989862717        6.3652148979       15.1044458671
  H        10.1432137777        4.5365476196       16.2718534755
  H         0.9718817058        5.7713553222       30.3685569547
  H         2.3410175358        4.8281815041       31.0310835398
  H         2.3528227265        6.5232971883       30.9306125926
  S         4.4625027547        1.9941717419       34.5937893148
  C         4.5370672119       -0.6325760374       35.2788628688
  H         4.3586723796        1.2090310628       20.6118505634
  H         3.8429645788        2.5030427748       19.5953907503
  C         3.7111960077        0.5297073868       18.5408982009
  H        13.1239006971        3.0605164058       23.8047722144
  H        13.9629001955        3.5731146330       22.1581066873
  C        14.8752271187        1.9546390758       23.5017863885
  S         9.7587146147       10.3316336345       17.6166688604
  N        10.2904482384        9.9158040023       16.1462509073
  C        10.5404310311        7.8159798598       14.9464760564
  H        10.7408165825        5.7879161759       14.2875273224
  C         4.1434434755        1.3907482779       36.2040426633
  N         4.2366234738        0.0441871861       36.3751053887
  O         4.5457737555       -1.8494835978       35.0290514457
  H         4.4105915026       -0.2402003968       18.6068516121
  H         3.7084215903        1.0816894015       17.5761887347
  C         2.3461620599        0.0375265343       18.9817549867
  H        14.4528916497        1.4005284060       24.3442562701
  H        15.1887498491        1.1181413496       22.8669497106
  C        16.0276800018        2.8713486976       23.8948620440
  C        11.0479387599        8.5075973626       13.8184245976
  S         3.7291028107        2.4193434379       37.5311396699
  C         4.1087608984       -0.6289393494       37.6817503072
  H         2.4843746638       -0.3181114437       20.0259482058
  H         1.5120528530        0.6733942157       18.9341446653
  C         2.1292343758       -1.2220872778       18.1873672384
  H        16.5510309450        2.4522540708       24.7985063055
  H        15.7099816956        3.8219056891       24.0927158458
  C        17.0646773156        2.9898977788       22.7667409340
  H        11.0868029887        9.5865835481       13.8648670164
  C        11.5643929922        8.0973488956       12.5888804669
  H         3.2477013310       -0.4659845016       38.3748466795
  H         3.8855724063       -1.7551697904       37.5288650206
  C         5.4334668444       -0.5072424679       38.4607971350
  H         1.2608664981       -1.7753294339       18.5120163074
  H         3.0256353533       -1.8770300979       18.3688370996
  C         1.9657466839       -1.1456689896       16.6682334658
  H        16.6968228568        2.8069679682       21.7902798876
  H        17.3445713461        3.9777901316       22.7229572803
  C        18.3056674705        2.1695854658       23.0573933797
  S        11.8740019981        6.4338444448       12.0789749303
  C        11.6265683332        9.1593507016       11.4954925995
  H         6.2527156575       -0.4382279919       37.8584533649
  H         5.3720922523        0.3547127779       39.1368896809
  H         5.6627755626       -1.4355866542       39.0029674351
  H         2.9051290659       -1.3491584495       16.1794190459
  H         1.5048213469       -0.1831975872       16.3676705075
  H         1.3072467520       -1.9412045175       16.4634797134
  H        18.9789502532        2.7329927464       23.7213403387
  H        18.8464862489        2.0039200494       22.1016301193
  H        18.0214752601        1.2589277516       23.5627297677
  C        12.3124844105        7.1915014144       10.5161447596
  N        12.1675447454        8.5757210074       10.4027191500
  O        11.1474876678       10.3127129094       11.5464205960
  S        13.0573511311        6.4029603942        9.0218212516
  C        12.4040409349        9.3636989255        9.2490482473
  H        12.5138564932       10.4403620724        9.5216017712
  H        13.3249692458        9.0547845837        8.7671201328
  C        11.2017855126        9.4684102063        8.3229451535
  H        11.4021951912       10.3097820755        7.6617159166
  H        11.0418553053        8.5630512579        7.7102556050
  H        10.3839508281        9.6713650044        8.9838355762
  H         5.1846651587        1.7457544074       13.1051538456
  C         4.3727684693        2.4620960061       13.1151249222
  H         4.9414337955        3.3337946282       13.4084455967
  C         3.6241847169        2.6008706199       11.7882283438
  C         3.3849614241        2.2300307889       14.2219979929
  C         4.6133346555        2.6939160663       10.6639544551
  H         3.1144656843        3.5304724973       11.8512419119
  H         2.8957076413        1.7643108120       11.5638382243
  H         2.3596179333        2.0724137510       13.9527223426
  H         3.4177704687        3.0212595577       14.9571145245
  H         3.6709341879        1.4382481336       14.8377482140
  C         4.9715237929        1.3065806201       10.0522937546
  H         4.3216390161        3.3762950283        9.9399050372
  H         5.5203928769        3.1013515409       11.1143173773
  C         5.6651921766        1.4147640050        8.7190120383
  H         4.1163598715        0.6227249651        9.9221373152
  H         5.6685909917        0.8085350097       10.7506756159
  C         6.9332824245        2.3060645341        8.6154441895
  H         4.9405928944        1.9619522856        8.1334215974
  H         5.8305934619        0.4619253156        8.1888249867
  C         8.1648169609        1.7135401901        9.4257381011
  H         7.1801321969        2.5657110796        7.5832614934
  H         6.6496691117        3.3510904509        8.9612227383
  C         9.3691292480        2.6758654060        9.5842791829
  H         8.4810286379        0.8833162614        8.8181336148
  H         7.7938281140        1.3284788463       10.4075546262
  C         9.0347800137        3.9549508028       10.2461197523
  C         9.7629918378        3.3363035152        8.3431455374
  C        10.5785203703        1.9135230924       10.2369576744
  C         9.2707161477        5.0653653912        9.4954393090
  C         8.5687724176        4.3022690553       11.5217246797
  C         9.7576868641        4.6882875398        8.2367503937
  C        10.1688363184        2.6564731851        7.1800802389
  H        10.2626947155        1.4240128194       11.1722140686
  H        10.8528597931        1.1402237262        9.5453535091
  C        11.8058805212        2.7878015455       10.6796953825
  S         8.7561394252        6.5367935227       10.1598940870
  C         8.2903596727        5.6432964626       11.6026540171
  H         8.3164439299        3.5538023709       12.2998650540
  C        10.1067325633        5.2829605911        7.0673193885
  H        10.3039028003        1.6065632891        7.1924129584
  C        10.5393969922        3.2578874130        6.0139536846
  H        11.3681513146        3.4348430064       11.4300940323
  H        12.2702103843        3.4260262035        9.9163923584
  C        13.0648811323        2.0949868044       11.1819999351
  C         7.8444689785        6.2592493220       12.8835301732
  C        10.5316540039        4.6064596400        5.8883876039
  H        10.0468413456        6.3707698140        7.0321236711
  C        10.9810620171        2.7927504878        4.7900284954
  H        13.9389478819        2.7338879000       11.0179920176
  H        13.1697510698        1.2711135145       10.5386463826
  C        13.2871797320        1.7115623737       12.5893261696
  C         7.8630813660        7.6411881208       13.0950233319
  C         7.4068160578        5.4936707037       14.0451311139
  C        11.0139168957        5.2844356457        4.6393842183
  C        11.2264506256        3.8572743742        4.0053897676
  S        11.2642639736        1.3111979273        4.0544110547
  H        12.5698526563        0.9341012834       12.8862321587
  H        14.2351521152        1.2747585043       12.7503613082
  C        13.2809633184        2.8524862937       13.6324766596
  N         7.9926005212        8.6096824686       12.1471399392
  C         7.6003131339        8.2491856551       14.3053420391
  C         6.9639668149        6.1333923778       15.1840024266
  H         7.2358039796        4.4249120796       13.9740745366
  C        12.2640500937        6.1312733367        4.9529580712
  C         9.9688099968        5.9980642392        3.7424146590
  C        11.5721846695        3.5337689665        2.6817628167
  C        11.6052556347        2.1539896980        2.6055224526
  H        13.7336062477        3.7289042227       13.1269261033
  H        14.0338127189        2.5361002206       14.3332222477
  C        11.9770098175        3.1128507331       14.3728083461
  S         8.0014197810       10.0579452686       12.9041620046
  N         7.6473436000        9.6101125646       14.3565003368
  C         7.1258152508        7.5592748534       15.4321327663
  H         6.5254752109        5.5497574886       15.9271887898
  H        12.1289603885        6.9816475910        5.7098444873
  H        12.4848521039        6.7650338881        4.0800609225
  C        13.4402423338        5.3112152942        5.3564227160
  H         9.6751744620        6.9349502108        4.1751808343
  H        10.4473270635        6.2192719702        2.7694707262
  C         8.6691395132        5.1975393633        3.5863980397
  H        11.8820474566        4.2872102502        2.0032874323
  C        11.8909705895        1.4367793410        1.2847453445
  H        12.1281567974        4.1119958665       14.6601911014
  H        11.0758606131        3.0395830302       13.7334855926
  C        11.8017396321        2.1940258783       15.6087499156
  C         6.7576789987        8.2548184953       16.6332130884
  H        13.2144004887        4.7593477622        6.3504174895
  H        13.8365431790        4.5225680186        4.6302864356
  C        14.6388264247        6.2456528614        5.6712707503
  H         8.4228148340        4.6632966592        4.4746508245
  H         8.7924514752        4.3315472930        2.9731947219
  C         7.5550957537        6.1337579977        3.0872943259
  C        12.0971567080        0.0229956371        1.1755020049
  C        12.1332342689        2.2453610520        0.0949546930
  H        11.5190880596        1.2313898015       15.3624240748
  H        10.8435560025        2.6791162033       15.9017766936
  C        12.6686164138        2.2738983051       16.8660009773
  H         6.6110536407        9.2875091963       16.4989488978
  C         6.5283886483        7.9128202782       17.9365597107
  H        14.4017707589        6.9810896594        6.4585857038
  H        14.7603730017        6.8981338015        4.7758370736
  C        15.8085642501        5.3718106220        6.1912836253
  H         7.1343922432        6.5891059344        3.9862484283
  H         7.9019709987        6.8733872077        2.3821866290
  C         6.4859081432        5.2236951113        2.5116175973
  N        11.8209411121       -0.9238868030        2.1666253295
  C        12.3563570023       -0.5749439468       -0.0507487944
  C        12.4986784713        1.6307920833       -1.1631938102
  H        12.1200832973        3.2923002140        0.1503472168
  H        12.3522590252        3.0214689606       17.5795221828
  H        13.5624126228        2.7578943155       16.5099375431
  H        13.0234800072        1.3194764321       17.2034758214
  S         6.3571623522        6.3476136281       18.6345335879
  C         6.4036045917        8.9837565483       18.9254616242
  H        15.4500617149        4.5782718231        6.8296747300
  H        16.3009550452        4.9077067089        5.3150021254
  C        16.7948769746        6.2412098872        7.0406658274
  H         6.3198063429        4.5492894359        3.4235020650
  H         6.9203313181        4.7470130041        1.6377621267
  C         5.0906038536        5.7928465398        2.0992755365
  S        12.2419887854       -2.3982157447        1.6432664531
  N        12.5901634702       -2.0024668503        0.0582080173
  C        12.5431262925        0.1354684633       -1.2254332318
  H        12.6760343652        2.2471636123       -2.0155661281
  C         6.1405075438        7.1312165942       20.1246134758
  N         6.1805565714        8.4770236999       20.1370605000
  O         6.4272991298       10.1952745946       18.6469198305
  H        17.2171429714        7.0114940778        6.3709500941
  H        16.2153836968        6.7820618427        7.7412965148
  C        17.8007800181        5.2895015554        7.7103348352
  H         4.2695157874        5.0199109330        2.1456469781
  H         4.7753741549        6.4074166725        2.9711650664
  C         5.0742657994        6.5746963632        0.8308455412
  C        12.9135515603       -0.7036620401       -2.2904012139
  S         5.8210206751        6.3544063701       21.6161245562
  C         6.0520378765        9.4258819329       21.2318136705
  H        17.4473355546        5.0217778866        8.6915560421
  H        17.8903253356        4.3343095401        7.1850949782
  C        19.1915018339        5.8880794583        7.8083436624
  H         4.5367571863        6.0795313653        0.0625533140
  H         6.0009030512        6.6563289375        0.4197165957
  C         4.4131040108        7.9413836621        1.1792491105
  H        12.8216683214       -1.7976466063       -2.1693171099
  C        13.2793621382       -0.3992454783       -3.5914831918
  H         5.5410511243        9.1289023888       22.1326889591
  H         5.5204365655       10.3235107359       20.9066923216
  C         7.4647160232        9.8176321864       21.6077272353
  H        19.6851334174        5.2254728804        8.5344994786
  H        19.3056661699        6.9401553684        8.1217495853
  C        20.0263939749        5.7802344234        6.4742980279
  H         4.0200080836        8.3493420602        0.2694699029
  H         3.5498871384        7.7542844789        1.8208436050
  C         5.2872169878        9.0539849291        1.7595054411
  S        13.6449439957        1.1654004344       -4.1147789191
  C        13.5986735340       -1.5212539261       -4.5372306722
  H         8.1850624895        8.8676196509       21.5723896192
  H         7.4537855951       10.0334593641       22.6972534008
  H         7.8288519949       10.7424205488       21.1256689171
  H        19.9886072202        6.7053961172        5.8802741892
  H        21.0833966617        5.6204111553        6.7330197994
  H        19.7393754747        4.9774549302        5.8190644759
  H         5.8648321923        8.6732656636        2.6487236466
  H         6.0881479656        9.4119795159        1.0649017529
  H         4.6573951285        9.9308780915        1.9904471160
  C        14.2398800086        0.4140018334       -5.5607476063
  N        14.1781054932       -0.9482415501       -5.5979947861
  O        13.4209709505       -2.7523425223       -4.2830170082
  S        14.8180393353        1.3142817995       -6.9611697625
  C        14.3268584748       -1.7006548344       -6.8310724841
  H        14.6546828388       -2.6465627001       -6.4894858612
  H        15.1851718005       -1.3932085537       -7.3971623534
  C        13.0279406325       -1.8621032137       -7.5737209948
  H        13.2927093632       -2.1732317931       -8.5950594378
  H        12.4982516368       -0.9469161202       -7.6809121883
  H        12.3645564784       -2.4539849674       -6.9384025364
