352
 i =    46700, time =    23350.000, E =        98.0370109167
  H        10.4060557086        4.6601560974       31.7621878757
  C        10.5339419137        5.7065178490       32.1589681100
  H         9.5969152402        6.1584750100       32.5137726785
  C        11.0684521779        6.7231735941       31.1035648991
  C        11.3517194328        5.5607775359       33.4868743326
  C        11.5951423646        6.1225430877       29.8090505136
  H        10.2631876435        7.4886058892       30.9032773472
  H        11.9489069203        7.3073340536       31.4832652514
  H        11.1782573622        4.7104280076       34.1688690182
  H        12.4142666255        5.5050814764       33.3071297158
  H        11.1942368353        6.4006949491       34.1567151043
  C        10.4185577856        5.7387958754       28.9326580821
  H        12.2157062278        5.2308100228       29.9347318204
  H        12.1591101305        6.8749365522       29.2890346061
  C        10.6606323233        5.9412504090       27.4206523034
  H        10.1339478265        4.6722822460       29.1274778781
  H         9.4683103969        6.1887739651       29.1987902321
  C         9.6753223062        5.3506963804       26.4664880574
  H        11.6254940962        5.4475569619       27.2665115268
  H        10.8011434067        6.9724664944       27.1979585887
  C         8.3864618893        6.1574515706       26.3701934873
  H        10.1687779783        5.3531178879       25.4994239174
  H         9.5309006617        4.3505718241       26.8111625997
  C         7.2666443814        5.3513473957       25.5944692955
  H         7.9978089055        6.3948350270       27.3157615386
  H         8.5648180724        7.1007503465       25.8602348214
  C         6.8762280368        4.0017727300       26.2769737864
  C         7.7460157620        4.5636410304       24.4018657333
  C         5.9680364020        6.2206064998       25.3410914948
  C         7.1463862995        2.9005535818       25.5550392003
  C         6.1624368463        3.6021116750       27.4642640007
  C         7.7983832807        3.1858288701       24.3832698236
  C         8.1931819365        5.1543842663       23.2019510099
  H         6.1416924520        7.0150515104       24.6402868022
  H         5.7225173435        6.7327459743       26.2575105337
  C         4.8199347842        5.5005142731       24.7615941460
  S         6.9256668952        1.4201075057       26.5126321258
  C         6.1858670445        2.2717526845       27.7625869312
  H         5.8280572664        4.4308121219       28.0753209557
  C         8.2817496810        2.5735908102       23.2652074002
  H         8.1684826944        6.2242605118       23.1822639984
  C         8.5814507150        4.5882483867       22.0961278449
  H         5.1501029136        5.1625918573       23.8112986026
  H         4.5082313984        4.5950962442       25.3464173489
  C         3.5889995819        6.5039976724       24.6054008115
  C         5.7479740859        1.5848137000       29.0343272172
  C         8.6408964593        3.2373737194       22.0500405924
  H         8.1833837437        1.4891241430       23.0929623679
  C         8.9439106031        4.9815673696       20.7833482315
  H         2.9023525462        6.0302515947       23.8773908834
  H         3.7654438425        7.4654742996       24.0821621148
  C         2.7282372016        6.6231298655       25.8977003673
  C         5.8137015828        0.2326637440       29.2870821389
  C         5.0557091837        2.3799544614       30.1455604888
  C         9.0477502583        2.5744901665       20.7419098348
  C         9.1442930195        3.8578178977       19.9588742179
  S         9.2674187543        6.4814745145       20.0791907761
  H         2.0156295746        7.3870673941       25.7887011110
  H         3.4027644477        6.8537051474       26.7384102523
  C         1.9407408359        5.4185138388       26.2738256930
  N         6.1911861815       -0.7871215139       28.3625469395
  C         5.6320379000       -0.2837294895       30.5556246912
  C         4.6414774963        1.8345993528       31.3115382828
  H         4.8616662989        3.4194412002       29.8754199939
  C         7.8595917040        1.7244928231       20.1383215271
  C        10.4245218344        1.7852595155       20.7677924169
  C         9.5241576163        4.3002207477       18.6573474261
  C         9.6736705124        5.6510373043       18.5448874575
  H         1.2348251601        5.3079027530       25.4270578149
  H         2.6926293259        4.5087299964       26.3166455432
  C         1.1376310986        5.6786509984       27.5417800927
  S         6.0828082339       -2.2103470018       29.0940500009
  N         5.6860104338       -1.6580818779       30.5762491121
  C         5.0930266762        0.4917159742       31.6031071908
  H         4.2043920899        2.4892684319       32.0472697597
  H         7.8518397658        0.8976415217       20.7972163955
  H         8.0733417383        1.2425146781       19.1514421960
  C         6.4232381407        2.3307377986       20.0753357706
  H        10.7015599470        1.2855909105       19.8857728773
  H        10.3366980550        1.0752075372       21.5779592584
  C        11.6706854021        2.6613845830       21.0257550743
  H         9.7275972317        3.5140083632       17.9777999322
  C        10.0195519622        6.4544744336       17.3157588130
  H         0.2481810383        5.0590911813       27.5363521597
  H         0.9011354077        6.7362893541       27.6682467833
  C         2.0391429896        5.1521947590       28.6957856891
  C         4.9012582772       -0.1622477084       32.7744000845
  H         6.3513000247        3.3616886181       20.5183729722
  H         5.9046296959        1.6364147322       20.7188514875
  C         5.9733618177        2.3522656226       18.5811415996
  H        11.3201880089        3.3969305579       21.7658977811
  H        11.9781535478        3.3026500033       20.1796182269
  C        12.8453393363        1.8507739735       21.5759554927
  C         9.9955826833        7.8823415918       17.1324175314
  C        10.2315510011        5.6523083000       16.1042715463
  H         2.1877853554        4.0569306553       28.6799792504
  H         3.0159077491        5.5528193848       28.7861987703
  C         1.4287331651        5.5528895265       29.9901987862
  H         5.1556389003       -1.2269535621       32.8553493088
  C         4.5737565777        0.2797518560       34.0047089928
  H         6.4245112581        1.5111004865       18.0007187835
  H         6.5521264850        3.1373403451       18.1267470656
  C         4.4901747149        2.5568409801       18.2743674935
  H        12.5981425381        1.0910231023       22.2977848468
  H        13.3727301169        1.4376051882       20.7200480857
  C        13.8742424447        2.7762969229       22.2132807557
  N         9.8142829999        8.7412999171       18.1932609767
  C        10.3543418567        8.5245163741       15.9486173520
  C        10.5167225945        6.3720457313       14.9005055546
  H        10.3161897266        4.5634988416       16.0752199600
  H         2.1687966501        5.5653860115       30.7942006112
  H         0.9025784426        6.4712618955       30.0179562180
  H         0.6224437951        4.8375198157       30.2342176728
  S         4.1858196358        1.8391583600       34.4283070160
  C         4.6042529310       -0.7297990243       35.1361546193
  H         4.1521160584        3.3683453990       18.9599782409
  H         4.3108953478        3.0558201023       17.3401029194
  C         3.6582698910        1.2426219107       18.6061520918
  H        13.4027984447        3.1865319096       23.1257484887
  H        13.9390749857        3.6902805771       21.6201674666
  C        15.2765444371        2.1195404113       22.3937616497
  S         9.9070955710       10.2510904788       17.6537745180
  N        10.5482725737        9.8876519200       16.1780643349
  C        10.6570820305        7.8289064722       14.7656585539
  H        10.7650859867        5.8101601191       13.9988095833
  C         3.9767482608        1.2245703542       36.1062392641
  N         4.1874572311       -0.0905152411       36.2752627811
  O         5.1301314671       -1.8660089817       35.0242246607
  H         2.7318601370        1.5453826159       19.0047938272
  H         4.1139699681        0.7459163784       19.4982864134
  C         3.6393923678        0.2350742473       17.5034661993
  H        15.1335879202        1.3860338767       23.1834683190
  H        15.5869257868        1.6145526311       21.4614974791
  C        16.3855748338        3.0870255603       22.7461970507
  C        11.0627063437        8.5524824932       13.5992835308
  S         3.5833534224        2.2403200747       37.5423599548
  C         4.3494698854       -0.6596204654       37.6296591569
  H         3.2282162397        0.6814331555       16.5516131566
  H         4.6397248149       -0.0551854652       17.3637107307
  C         2.8730419374       -0.9623031256       17.9873294289
  H        16.0557489065        3.5130369848       23.7293702194
  H        16.3919398579        3.9174055897       22.0331245791
  C        17.7878799474        2.4501362086       22.7037330873
  H        10.8070753574        9.5970918270       13.5689187659
  C        11.5553790833        8.2337380152       12.3414283073
  H         3.5616840669       -0.4464411961       38.3552377029
  H         4.1533610649       -1.6511044175       37.5818790158
  C         5.8125233132       -0.5342394181       38.1942725225
  H         1.9066361573       -0.7399752989       18.3557552233
  H         3.5207258731       -1.3056934015       18.7448184690
  C         2.8422535938       -2.0735222032       16.9055566794
  H        17.7706065239        1.7260955275       21.8446862592
  H        18.5514016732        3.1371859268       22.5421543751
  C        18.0612895541        1.7157003085       23.9956499637
  S        12.1514295105        6.7011975487       11.9539972099
  C        11.6909817669        9.2516642611       11.2755779564
  H         6.1233169688        0.4562611484       37.9157622732
  H         5.7285430645       -0.6464373053       39.2854429615
  H         6.5739371136       -1.1624167885       37.7210097036
  H         3.8365309743       -2.3642836293       16.5855396068
  H         2.3082770659       -1.7572816758       16.0335864660
  H         2.3009588359       -2.9834943558       17.3109748332
  H        17.8353496415        2.3056868010       24.7860823187
  H        19.0949950401        1.3692074857       24.1305704901
  H        17.4263670225        0.8249597992       24.0547655960
  C        12.5941415291        7.4070587340       10.3521269866
  N        12.3594183646        8.7171086917       10.2473717936
  O        11.3400200607       10.4488423693       11.4031772468
  S        13.5866106505        6.5948170959        9.0662427124
  C        12.7380219213        9.4983871734        9.0985577182
  H        12.9225069872       10.5428282119        9.3565520116
  H        13.7449424708        9.1374033532        8.7262523687
  C        11.5623869135        9.3265666708        8.1334606580
  H        11.3209650076       10.3392139767        7.8443372566
  H        11.7429700501        8.7642074300        7.2158851290
  H        10.7780803775        8.8244668562        8.6589319570
  H         3.8224489031        3.7581447647       12.1969064452
  C         3.2585400980        2.7739237769       12.3009478668
  H         2.1837240293        2.7721358633       12.1055972592
  C         3.8598523882        1.6847097753       11.3681773232
  C         3.4102851363        2.4023306184       13.8042452109
  C         4.5394558712        2.2778279112       10.0790482339
  H         3.1252883190        0.9542925087       11.0988625608
  H         4.5236088067        1.0732088978       11.9694928891
  H         3.5625994934        1.2942769934       13.9396470846
  H         2.4988285129        2.7433922505       14.3776314417
  H         4.2942694294        2.8831075522       14.2635682159
  C         5.2743932327        1.2433268975        9.2936278218
  H         3.7378483131        2.7144789362        9.4453023138
  H         5.2380407219        2.9855870937       10.2431850485
  C         6.1155170506        1.7590954669        8.1193903421
  H         4.5302915510        0.6193067075        8.7250587039
  H         5.8585183985        0.5244340804        9.8807885245
  C         7.2031011121        2.7310345349        8.4705821860
  H         5.4584987751        2.1303839758        7.3316163146
  H         6.6942927733        0.9461671745        7.5748659389
  C         8.3695024941        2.0394744919        9.2304719591
  H         7.6374045702        3.2045094159        7.6158635851
  H         6.7691929880        3.5936007994        8.9679116270
  C         9.6637471524        2.9337992042        8.9789217930
  H         8.4141379502        1.0292022328        8.9095080131
  H         8.1557591018        1.9146895135       10.3092602310
  C         9.2690312267        4.2609680843        9.6896231897
  C         9.9757386233        3.6330629272        7.7483619586
  C        10.9218325443        2.1585768515        9.6299929544
  C         9.3567099658        5.3696276391        8.8665457183
  C         8.7706141507        4.5875659290       10.9808959657
  C         9.8616190067        5.0086002488        7.6809581937
  C        10.4568454600        3.0586222523        6.5765517171
  H        10.6554033642        1.5737402329       10.4581079314
  H        11.2509354598        1.4971718594        8.8470125122
  C        12.0799145913        3.1187628520       10.0685655561
  S         8.7985252777        6.8111433612        9.6277032952
  C         8.5369150266        5.9393777439       11.1156762042
  H         8.6331464612        3.8511283451       11.7437879400
  C        10.2302008583        5.6766355897        6.5893189471
  H        10.4791216090        1.9915410365        6.5676334771
  C        10.6961542923        3.7294318406        5.3783640513
  H        11.5744449110        3.9809874049       10.5533220265
  H        12.6620237804        3.5371051170        9.2846948192
  C        12.9982875126        2.5823071979       11.2346997688
  C         7.9516741373        6.5962984275       12.3466770555
  C        10.5800542745        5.1055148248        5.3785737071
  H        10.1150771482        6.7386062868        6.6146998217
  C        10.9902361989        3.4047675503        4.0985894566
  H        13.8364423495        3.2873310661       11.2561479622
  H        13.5276228314        1.6650292252       11.0238657513
  C        12.3466528875        2.5628654737       12.6151650347
  C         7.8988267411        7.9971980268       12.5532555121
  C         7.4613229249        5.6437521013       13.3754871939
  C        10.7660262617        5.8439895181        4.0340841910
  C        11.1100814311        4.5526594516        3.2858325485
  S        11.4467702680        2.0077211182        3.3303508325
  H        11.7484006259        3.4425254534       12.7608577641
  H        11.6008590289        1.8287842485       12.6802243918
  C        13.3758069935        2.2661490720       13.7188648473
  N         8.2531848882        8.9975419628       11.7158847535
  C         7.5159123564        8.5025635521       13.8114873585
  C         6.9835971575        6.2300438598       14.6075879802
  H         7.1822871274        4.6017269612       13.2203074154
  C        11.9938134350        6.7619685343        3.9707693537
  C         9.5699972682        6.5944507547        3.5902281470
  C        11.3475483227        4.1757270985        1.9390261283
  C        11.5507403379        2.8094722761        1.8066043828
  H        14.2371148780        2.9758809271       13.6862942942
  H        13.5765536010        1.1924676742       13.6782173178
  C        12.7215728728        2.5700719730       15.0499033434
  S         7.9476108583       10.4400253622       12.4509849249
  N         7.5613572608        9.8991244098       13.8709070586
  C         7.1777723867        7.6977123813       14.9382214868
  H         6.5271583677        5.5754811339       15.3505546665
  H        11.8314641734        7.4929378477        4.6839167650
  H        11.9452765742        7.2246077747        2.9835897072
  C        13.3112386854        6.0550923545        4.2547283384
  H         9.1436011002        7.1629422194        4.4309723179
  H         9.9062032144        7.4425140259        2.9460474925
  C         8.5090373102        5.6723061874        2.9840751570
  H        11.2623084594        4.9687205125        1.2004074993
  C        11.7587793537        1.9560187359        0.5350824278
  H        12.3029028080        3.6311664964       14.9729416774
  H        11.9319802958        1.8397913111       15.3245627799
  C        13.6919027614        2.4796743249       16.1938610993
  C         6.9531350675        8.3142091837       16.2096109556
  H        13.2020392148        5.2571550524        4.9062300395
  H        13.6861748349        5.5408869618        3.3617917563
  C        14.4900552754        6.8893212401        4.8129121415
  H         8.1756307783        4.8663489896        3.6668793365
  H         8.9764090154        5.2455418633        2.1378028752
  C         7.2721846952        6.4348183260        2.5527041323
  C        12.0162286415        0.5437836124        0.5527736414
  C        11.7167062123        2.6555983196       -0.7878901607
  H        14.3302118614        3.3794135939       16.0976902954
  H        14.2652593697        1.6045761698       15.9932097616
  C        13.0418650326        2.4873432934       17.5158264543
  H         7.0512383523        9.3956379766       16.2118174024
  C         6.5879120176        7.9107557659       17.4455969180
  H        14.1001982508        7.3653593267        5.7295504322
  H        14.7697741259        7.7345085147        4.1364279198
  C        15.6808122780        5.9082903270        5.1829699876
  H         6.9466367963        7.1202573847        3.3828887408
  H         7.4324142516        7.0803277486        1.6820070807
  C         6.0780988095        5.5262404251        2.3196491048
  N        11.8357731656       -0.2564167595        1.7081978368
  C        12.2194064827       -0.2555823286       -0.6022682863
  C        12.1224896900        1.8754802241       -1.8988900739
  H        11.4581817440        3.7515015383       -0.9128827591
  H        12.2609586681        1.7084701647       17.6351916958
  H        12.4972988458        3.3497958287       17.6103902148
  H        13.8095367450        2.5965463909       18.4023884525
  S         6.3824879965        6.2526735624       17.9113032380
  C         6.6010066393        8.9161934539       18.5091894538
  H        15.1615250572        4.9827148235        5.4865932986
  H        16.3339818876        5.8115551304        4.3132577931
  C        16.6178362112        6.4173744687        6.2234398594
  H         5.5533613931        5.1778334242        3.2002027470
  H         6.4500735754        4.6284865676        1.9187529502
  C         5.0524218023        6.1477002993        1.3414642805
  S        12.0071190397       -1.7923913236        1.2801721869
  N        12.2025416556       -1.5348367349       -0.3419539924
  C        12.4088486896        0.3900754788       -1.8365875448
  H        12.1973738582        2.3715024505       -2.8535216224
  C         6.0804823293        6.8900546528       19.5185739183
  N         6.2810800478        8.2372187797       19.6411211639
  O         6.7845623481       10.0933510547       18.3931734075
  H        17.2448065669        7.2613168511        5.8424347772
  H        15.9683593799        6.9362247418        6.9427296841
  C        17.5434728233        5.3086397419        6.8740498900
  H         5.4793934866        6.2039205167        0.3105717822
  H         4.2720399786        5.4116703753        1.2614598203
  C         4.2930468584        7.4341859329        1.7344430467
  C        12.5952271726       -0.3962769932       -2.9737393274
  S         5.8069938063        6.1183410704       21.0433970145
  C         6.2625849165        8.8656300841       20.9424740665
  H        16.9430516499        4.6777450402        7.5561104917
  H        17.8861020123        4.5408915546        6.1716807633
  C        18.7125714578        5.9003943213        7.6187799327
  H         4.5068029800        7.6643607483        2.7676675754
  H         3.2271113263        7.3478399782        1.5752379860
  C         4.8723836916        8.4812527642        0.7827102627
  H        12.5284423124       -1.4623939991       -2.7606370451
  C        13.0942220869       -0.0928219998       -4.2124906420
  H         5.5734218334        8.6170241018       21.7296265523
  H         5.8808430010        9.8148231975       20.6955570769
  C         7.7201956962        9.1342714051       21.4826771692
  H        19.0171674837        5.2128552847        8.3768682664
  H        18.4233473031        6.8771011365        7.9785875295
  C        19.8732948146        6.0584083474        6.7179850329
  H         5.9857940833        8.6244465324        0.8656366867
  H         4.6770153790        8.1839060102       -0.2490758224
  C         4.1768974815        9.7595383826        0.9865061169
  S        13.6160487594        1.4627515203       -4.8619946419
  C        13.2954969781       -1.1580417375       -5.2421846516
  H         8.3616529577        9.6461450655       20.7956175550
  H         8.3396338641        8.3116320935       21.7766299385
  H         7.7303699955        9.8455475842       22.3126133503
  H        20.1237441191        5.1056438971        6.3030688401
  H        19.7958634797        6.6808125585        5.7893727632
  H        20.8125265686        6.4043756400        7.2937915420
  H         3.5775295869        9.8111045816        1.9143289194
  H         4.9087692117       10.5405345797        0.8004251418
  H         3.3268300416        9.8968461103        0.3116922260
  C        14.0921334418        0.6625363733       -6.3733551041
  N        13.9132581519       -0.6652179594       -6.3447699158
  O        12.8305436117       -2.3035341345       -5.0161948801
  S        14.7475968064        1.4302690692       -7.8180251629
  C        14.0411518498       -1.4632116511       -7.5565276266
  H        14.0147345319       -2.5358383724       -7.3119784942
  H        14.9893964129       -1.2484780844       -8.0966078856
  C        12.7210120228       -1.2816492201       -8.4345835954
  H        12.2483404091       -2.2408929634       -8.6555213367
  H        12.8762584078       -0.8616423633       -9.4705101119
  H        11.9156360991       -0.7711712943       -7.9892520090
