352
 i =    36800, time =    18400.000, E =        96.8446886125
  H        10.3918750800        4.5043343570       31.1164111615
  C        10.5387584225        5.4191861167       31.6774282026
  H         9.6106032696        5.9527735108       31.5091361824
  C        11.5855475006        6.2402889089       30.9758095508
  C        10.7989665047        5.0522022544       33.0878388982
  C        12.0543617598        5.7193755744       29.5860549513
  H        11.4482707989        7.2555804739       30.9861638280
  H        12.4690873983        6.2017636250       31.6039959046
  H        10.3592212999        4.1465075031       33.3885201277
  H        11.8254544990        4.8625742073       33.2879434881
  H        10.5029140029        5.9945503230       33.5318867314
  C        10.8992898618        5.6658532153       28.5646437311
  H        12.5669786904        4.7735056438       29.6855315712
  H        12.8610042397        6.4800391015       29.3347757783
  C        11.2384730611        5.0972325925       27.2417452688
  H        10.1196592096        5.0123508835       29.0257482819
  H        10.5049584593        6.7038991781       28.5616376575
  C        10.0275841814        4.5855905985       26.4583646274
  H        11.7899559728        4.1491086457       27.3525828523
  H        11.7456907567        5.7934764451       26.6006126222
  C         8.8354806349        5.5462544639       26.2501478948
  H        10.4087005726        4.3057816447       25.5554037922
  H         9.7217126129        3.6054154812       26.9283162482
  C         7.6521979616        4.8070225867       25.6559566574
  H         8.5077253502        5.9278130250       27.2038409503
  H         9.1928175401        6.3889291813       25.6557398542
  C         7.2388107914        3.5497215833       26.3805935325
  C         8.0198653913        4.0377495005       24.4040600943
  C         6.4337038692        5.6748329972       25.3326102644
  C         7.4025334557        2.3874902000       25.5970208302
  C         6.7256425650        3.1045986774       27.6473204581
  C         7.9550045461        2.7022288183       24.3532289574
  C         8.5114215238        4.6299633585       23.2237924222
  H         6.6832120193        6.5226516525       24.6497645368
  H         6.0797477364        6.1625320211       26.1782163438
  C         5.1653019306        4.9724380422       24.8512647527
  S         7.0795655811        0.8879399165       26.4359179322
  C         6.6251699105        1.7425164285       27.8408303398
  H         6.4509837607        3.8334791134       28.4003320210
  C         8.1949798499        2.0415386960       23.1917663013
  H         8.5275641151        5.7142082030       23.1353545735
  C         8.8758132030        4.0271856535       22.0684995640
  H         5.4756086412        4.5902664446       23.8845039072
  H         4.8902672016        4.1348119210       25.4719596889
  C         3.8517619084        5.7049155371       24.8558489513
  C         6.1627135622        1.0130177814       29.0845848054
  C         8.7668380701        2.6536190608       22.0500554935
  H         8.0202244022        0.9895488248       23.1586991849
  C         9.3082494903        4.3817822014       20.8469433177
  H         3.0482898747        5.2372616861       24.3201739032
  H         4.0596437047        6.7221303755       24.3804121901
  C         3.2376401050        5.9811662055       26.2816743270
  C         6.1350122914       -0.3582104672       29.3335776975
  C         5.6434655732        1.8979682890       30.1796245783
  C         9.1303359050        1.9903125937       20.7211520093
  C         9.4792025888        3.2844393333       20.0509250309
  S         9.6029671926        5.8539731030       20.0469881195
  H         2.5191338535        6.8024695384       26.2589586553
  H         4.0429261089        6.2936793869       26.9459935761
  C         2.4456004562        4.7642315793       26.8312468118
  N         6.5597306790       -1.3291011889       28.4829035524
  C         5.8462763497       -0.8428781379       30.6528333812
  C         5.3606355670        1.4220653304       31.4090106616
  H         5.4309303144        2.9124486842       29.9890408799
  C         7.9398291690        1.1944350009       20.1028874514
  C        10.4232304483        1.1487071852       20.9180174022
  C         9.8264825493        3.6623037378       18.7870173866
  C         9.8910728645        5.0079211158       18.6157531700
  H         1.7112592646        4.4816190651       26.1109617063
  H         3.2135850974        4.0170654088       27.1174132233
  C         1.7528138353        5.0686730755       28.1900970029
  S         6.6172496588       -2.7673346967       29.3445359409
  N         6.2143450941       -2.1841613968       30.8220648573
  C         5.3342793260       -0.0393727186       31.6297096171
  H         5.0291330902        2.2200886067       32.1112093895
  H         7.6950339140        0.3905800726       20.7997126398
  H         8.2496649165        0.6801509393       19.1570614866
  C         6.6678702307        2.0219478438       19.7094348431
  H        10.6640239340        0.4298918658       20.1344548608
  H        10.3487241695        0.6921252321       21.8823925088
  C        11.7130784282        1.9752709070       21.1085281730
  H        10.0316624245        2.8737142272       18.1843077853
  C        10.1517346738        5.8043265151       17.3811958002
  H         1.2676253111        4.1512998139       28.5424990811
  H         0.9371887691        5.6521818445       27.8431832608
  C         2.6610536653        5.6437663466       29.3009245881
  C         5.0973191259       -0.6145743913       32.8846649975
  H         6.8020628683        2.7326546597       18.8808537540
  H         6.3471766911        2.6696630521       20.5494949183
  C         5.4624162342        1.1691208968       19.5510330469
  H        11.5353994231        2.7071559773       21.9399953016
  H        11.9861978802        2.6428687143       20.2978226975
  C        12.9399425959        1.1439895103       21.5241348689
  C        10.1928649867        7.2178076431       17.2754820854
  C        10.3744159787        5.0070440525       16.1676749947
  H         3.6098967881        5.1789880311       29.3512787425
  H         2.7406156935        6.7477879639       29.1453700133
  C         1.9087250794        5.4124722010       30.6212669567
  H         4.9577853325       -1.6331549846       32.8692861999
  C         4.8609946366       -0.1784779192       34.1538385490
  H         4.8815184783        0.8456782583       20.4164207286
  H         5.7771621347        0.2345964833       19.1049080790
  C         4.3476916186        1.8628086837       18.7075777373
  H        12.5934734824        0.3075018968       22.0835704162
  H        13.3023026303        0.7065601597       20.6058809417
  C        13.9035029132        2.0134372235       22.2895073866
  N         9.9945840997        8.1583192349       18.2872397179
  C        10.4134566160        7.8362687782       16.0735432371
  C        10.6378991767        5.6137609168       14.9690066954
  H        10.5073633759        3.9067615182       16.2263481772
  H         1.3674689156        6.2762840426       31.0609468164
  H         1.0792095949        4.7341936211       30.5124634418
  H         2.6149636604        5.1013399624       31.3831609673
  S         4.6077659768        1.4560322325       34.5707451331
  C         4.7014763554       -1.1551131772       35.2481397823
  H         4.3257360255        2.8969016546       19.0915719664
  H         4.6685237347        1.9213974568       17.5851713887
  C         2.9434815733        1.2955800754       18.7212075361
  H        13.5605876098        2.5281959944       23.1678548905
  H        14.2738274597        2.7020010035       21.5119167174
  C        15.1004885951        1.2183791579       22.8561752682
  S        10.0651155181        9.6930600345       17.6431126594
  N        10.3358013998        9.2658062514       16.1133209955
  C        10.6645428297        7.1342760303       14.8363052200
  H        10.8913562879        4.9258063637       14.1280719378
  C         4.3472045062        0.8639960981       36.2070413908
  N         4.4680888966       -0.4767428008       36.3476112502
  O         4.7911248802       -2.4202315134       35.0742156849
  H         2.2669007114        2.0762809550       18.4123283107
  H         2.5822056842        0.9948948891       19.6998179809
  C         2.7364296734        0.1543862278       17.7716958352
  H        14.9413342474        0.3644973732       23.5356654105
  H        15.6230318131        0.7056250850       22.0445686530
  C        16.0877002627        2.1324689851       23.6176936060
  C        10.8848122785        7.8522954029       13.6420157415
  S         4.2057652717        1.8608061311       37.6427426327
  C         4.4239738598       -1.1296829510       37.6644901975
  H         1.6739949125        0.1365332769       17.3460772615
  H         3.4360481625        0.2028268716       16.8678333163
  C         2.8865016299       -1.2368510872       18.4188675356
  H        15.5052380791        2.4523492848       24.4850049594
  H        16.2864219684        2.9617264141       23.0227168508
  C        17.3748671402        1.6083534190       24.0794724706
  H        10.5545007939        8.8675789433       13.6484596635
  C        11.4683057070        7.3941962662       12.4877443812
  H         3.4683940882       -0.9330623156       38.1714957061
  H         4.4055955576       -2.1809581813       37.6276391098
  C         5.6832940474       -0.8527506751       38.5637848548
  H         1.9112139188       -1.7220258774       18.7176375568
  H         3.4057973055       -1.1061311074       19.3635913831
  C         3.7196015161       -2.2167696368       17.6016103834
  H        17.7325977419        2.1509069826       24.9091580245
  H        17.2141601258        0.5625437401       24.3380623040
  C        18.3428199422        1.5423544456       22.9346268050
  S        12.1407437494        5.8388327787       12.0955906298
  C        11.5337653841        8.4298145704       11.4117071051
  H         6.5026090998       -0.7309460175       37.9157862563
  H         5.6975907318        0.0809740528       39.1319048485
  H         6.0414925851       -1.6171389761       39.2764394474
  H         4.7665632543       -1.9827529380       17.4885904789
  H         3.2199442282       -2.2768230000       16.5647748211
  H         3.5905010767       -3.2763176323       18.0106751268
  H        19.2817898272        1.0832172429       23.0780055786
  H        18.5876484146        2.6367941396       22.6383173706
  H        17.8846514535        1.0348358340       22.1686489065
  C        12.4409152220        6.4592570450       10.5353246919
  N        12.2343090706        7.7876949119       10.4233989312
  O        11.2353162012        9.6328403360       11.5190417138
  S        13.2376040634        5.6293723169        9.2077556045
  C        12.4506928995        8.5220467313        9.1787581237
  H        12.4077567308        9.6337752216        9.3346545886
  H        13.4405399799        8.3723334276        8.7023787779
  C        11.3970896361        8.1325359319        8.0966296946
  H        10.4731209351        7.8048041665        8.5001648627
  H        11.1794505260        9.0384821942        7.4954143014
  H        11.7697870530        7.3244984649        7.3970092144
  H         2.8853813395        0.8626965396       13.7877485989
  C         3.6561324399        1.3348315777       13.2416640537
  H         4.2357752846        0.4478734252       12.9387356328
  C         3.1346254635        1.9793594549       11.9742097576
  C         4.5723685288        2.2305370630       14.1437010073
  C         4.2377171359        2.1865325544       10.9588418352
  H         2.6359040526        2.9902966397       12.1908962122
  H         2.3745438582        1.2774887749       11.5890873457
  H         4.8498219838        1.7391975412       15.0438447637
  H         4.0552101193        3.0841063896       14.4786037843
  H         5.5687004111        2.4640692945       13.7167100268
  C         4.6338956346        0.8685279896       10.1777773972
  H         3.9531003619        2.8953852710       10.2370684993
  H         5.0829833797        2.5482492679       11.5378841280
  C         5.1934265447        1.1563000000        8.7734631972
  H         3.7250521574        0.2633092508       10.0443098317
  H         5.4207867290        0.4524876870       10.7202069478
  C         6.4292011804        2.0237250978        8.6379384708
  H         4.3460678602        1.4386392211        8.1553878694
  H         5.4522232325        0.2094722369        8.3253897319
  C         7.8111782347        1.4444900343        9.0512235103
  H         6.4795435875        2.4115885863        7.5753446874
  H         6.3569093146        2.7944529559        9.4006532460
  C         9.0260894933        2.3844362819        9.1865729162
  H         8.1311196270        0.7367077560        8.3138808657
  H         7.7868221499        0.7850646329        9.9649788072
  C         8.6337317320        3.6981171617        9.8029709790
  C         9.3557700393        3.0568164455        7.9078399989
  C        10.2298968173        1.7022591386        9.8291122499
  C         8.7265313186        4.7640675682        8.9703624497
  C         8.1231122276        4.0772570919       11.0418046429
  C         9.1369479431        4.3656902980        7.7109445690
  C         9.9211730531        2.5340231414        6.7168311875
  H         9.8045624912        1.3326522875       10.7741339040
  H        10.5329055102        0.8324616639        9.2636169861
  C        11.3698445135        2.7055877284       10.1139336925
  S         8.4843590570        6.2642594426        9.7574529749
  C         8.0900457680        5.4611028279       11.2236711581
  H         7.9980831193        3.3426063035       11.8060527853
  C         9.4167835065        4.9894010682        6.5217218413
  H        10.1578840628        1.4666323915        6.7346691346
  C        10.1972611775        3.0989519295        5.5078181037
  H        10.9268308188        3.5413988032       10.5683529320
  H        11.7506352533        3.0285621762        9.1501803755
  C        12.5377527990        2.3280456134       11.0461238146
  C         7.7410572556        6.0904973570       12.4987597085
  C         9.9698414897        4.4077102799        5.3732517030
  H         9.2867440357        6.0572784099        6.5633819494
  C        10.6061384184        2.8006324285        4.2388685691
  H        13.1398884236        3.2490556933       11.1626314224
  H        13.2419888399        1.7082777585       10.5704553693
  C        12.0704019330        1.7043384623       12.3878877193
  C         7.7356126205        7.5128801423       12.7371705958
  C         7.2281566817        5.3272058988       13.6590856373
  C        10.3069572349        5.1633032181        4.1249000596
  C        10.7200935199        3.8856458015        3.4400799508
  S        10.8734261202        1.3667328521        3.4293027420
  H        11.2563121903        2.1716408210       12.9251230662
  H        11.7013516991        0.6944769388       12.1392729539
  C        13.2768567558        1.6724050880       13.3537651418
  N         8.0779501069        8.4760377787       11.8292565817
  C         7.5207903531        8.0774453309       14.0057739189
  C         6.8367475854        5.9152491574       14.8548110067
  H         7.0333684322        4.2951915498       13.5203124533
  C        11.5130996559        6.0738951781        4.4326465966
  C         9.0795488491        5.7858927135        3.5360912356
  C        10.9226222473        3.5739602630        2.0828096115
  C        11.1373801553        2.2403094456        1.9496316688
  H        13.5536371415        2.6724975563       13.7173812924
  H        14.2687463809        1.2385227066       12.9516103596
  C        12.9027671031        0.9475505338       14.6674440142
  S         8.1979232975        9.9149308364       12.5997712396
  N         7.7545694195        9.4533993807       14.0627520332
  C         7.0747247351        7.3189448303       15.1151476828
  H         6.5139411409        5.2475064831       15.5867654628
  H        11.1879190894        7.0518905772        4.8527900454
  H        11.8852270617        6.2246187900        3.4151252306
  C        12.7532063391        5.5135613919        5.1815922109
  H         8.8079948949        6.5855731399        4.2011054767
  H         9.3999639658        6.1687815954        2.5611558829
  C         7.9307676175        4.8482951478        3.3321955826
  H        11.0250493230        4.3400593837        1.3494226362
  C        11.6226656412        1.5746458708        0.7084008847
  H        11.9679210514        0.5277955322       14.5667842123
  H        13.6347910485        0.1932042528       14.8466043171
  C        12.9167179893        1.8312855007       15.9166704334
  C         6.9949588544        7.9644371365       16.4307450238
  H        12.4942435083        5.1406975213        6.1681525611
  H        13.1564181179        4.6890492683        4.6640239853
  C        14.0381166569        6.4782416855        5.1787135763
  H         7.6387015698        4.5613308989        4.3792564326
  H         8.1959656774        3.8852873697        2.8136069460
  C         6.8364885062        5.6912265872        2.6572108870
  C        11.7940353895        0.1751461736        0.6402421159
  C        11.8246140599        2.3828573869       -0.5288502152
  H        12.2779734886        2.6746643238       15.7535032088
  H        13.9316732102        2.2460803507       16.0780882440
  C        12.7703743257        0.9905824969       17.1471712379
  H         6.9975259857        9.0122032255       16.3442735478
  C         6.7806674716        7.4996703732       17.7074133105
  H        13.7303294342        7.5634429400        5.4047499130
  H        14.6356715217        6.6241744386        4.2070067809
  C        15.0567792373        6.0051889084        6.2317656486
  H         6.5575211488        6.5123075879        3.3535996834
  H         7.2463020248        6.1870473838        1.8311114231
  C         5.5918499619        4.9390219119        2.2427395270
  N        11.5829873242       -0.6434272727        1.6782682110
  C        12.1876711238       -0.4464713013       -0.4852400637
  C        12.2411153140        1.7079852245       -1.6836671296
  H        11.7719554045        3.4361448689       -0.6045683380
  H        13.0699062170        1.5358307491       18.0497042862
  H        13.4046056146        0.0776557665       17.0675584155
  H        11.7094675859        0.7628933107       17.2190157407
  S         6.6253893757        5.8270834364       18.1847834806
  C         6.7124837878        8.4812313109       18.7793486181
  H        14.9587962616        6.8205020856        6.9575469884
  H        14.6425698883        5.0833563790        6.6446015866
  C        16.5022105638        5.8689615955        5.7163485407
  H         5.1739184781        4.4890576911        3.1221207437
  H         5.8539432327        4.1702561139        1.6143527586
  C         4.4291721884        5.8099544482        1.6270173602
  S        11.7641889000       -2.1570784665        1.0782096559
  N        12.3385480945       -1.7866918341       -0.3739059769
  C        12.4078456976        0.2273649231       -1.7208624461
  H        12.5142051957        2.1446846816       -2.5226937977
  C         6.2451966690        6.5240037380       19.8111355988
  N         6.3771779735        7.8674194480       19.9086697124
  O         6.9378946386        9.6989018401       18.6428876997
  H        16.4971765906        4.9614649457        5.2152306744
  H        16.8611325226        6.5939759384        4.9996034398
  C        17.5368084548        5.7809712880        6.8421117214
  H         4.6234706835        6.2375667695        0.6064479778
  H         3.5214975402        5.1814551059        1.5525760025
  C         3.9517580000        6.9168660600        2.4924637872
  C        12.8746647118       -0.4954094574       -2.8680992787
  S         5.7786254169        5.6239138849       21.2515983645
  C         6.3790814542        8.6152602183       21.1634343250
  H        17.3201236387        6.5943428591        7.5288015540
  H        17.4027248405        4.8762855580        7.4438676110
  C        19.0106031400        5.8775514997        6.3063819951
  H         4.3761797173        6.7654939711        3.4521620361
  H         2.8589981334        6.9760282810        2.5291758036
  C         4.5634499376        8.2844799907        2.1210890612
  H        12.5539916360       -1.5132478814       -2.7943615089
  C        13.5081095580       -0.1171798970       -4.0533971309
  H         5.7975788955        8.1916392253       21.9574247567
  H         5.8816881616        9.5496394945       20.9141385221
  C         7.8248500139        8.7602215081       21.6395661952
  H        19.1500742178        6.8925840200        5.8248307350
  H        19.2372721146        5.1126462041        5.4970947982
  C        20.0290008130        5.7644439864        7.4420187280
  H         4.3127132867        8.9977478585        2.8775949238
  H         5.6104405669        8.2379348623        1.9412158317
  C         3.8902161649        8.8744485458        0.8503677218
  S        14.1491857717        1.4442543089       -4.4938835505
  C        13.4484956816       -1.1085644002       -5.1794425779
  H         8.0725661534        7.8795229918       22.2416890259
  H         7.8886213478        9.5700917389       22.3206896067
  H         8.6115553238        8.9538770933       20.9129830417
  H        20.3914908976        4.7713689562        7.3686298908
  H        20.7735436719        6.5953673086        7.3978963838
  H        19.5727482909        5.9704325187        8.4008612385
  H         4.1795475987        8.3954488324       -0.0913478287
  H         2.8208522442        8.7349252767        0.9727592210
  H         4.0724642080        9.9847712752        0.8552461281
  C        14.3516136705        0.7957160753       -6.0659600837
  N        13.9970133690       -0.4961977483       -6.2414395754
  O        13.1149683327       -2.2680220559       -4.9657263582
  S        15.2710577666        1.5894072481       -7.4282320561
  C        14.0371739030       -1.2316963041       -7.5474607554
  H        13.7794053470       -2.2054202147       -7.3665391890
  H        15.0457239664       -1.2132115953       -7.9433266213
  C        13.0710127024       -0.7190899243       -8.6523184856
  H        13.0847597037        0.3150218981       -8.8669544311
  H        12.0290867495       -0.9416292968       -8.4195581960
  H        13.4084211344       -1.2197760088       -9.5783658572
