352
 i =    51100, time =    25550.000, E =        98.8397681894
  H         9.6926306878        3.9640801261       32.6143971196
  C        10.1816297408        4.9339990165       32.8691808200
  H         9.6358413759        5.5885368083       33.4943722378
  C        10.3059459971        5.8256321980       31.6737015809
  C        11.5993320693        4.5157643655       33.3960060134
  C        10.4190680669        5.0472796965       30.3450689733
  H         9.3686372533        6.4443818436       31.4704285269
  H        11.1085148885        6.5669763251       31.7467901716
  H        12.3152222892        4.3164382068       32.5802831038
  H        12.0052932033        5.2659345794       34.0167198201
  H        11.6297808854        3.6565532054       34.1362974826
  C        10.3947454512        5.9782121765       29.1676762468
  H         9.5442304916        4.3429209866       30.4460286710
  H        11.4040176635        4.5994519915       30.4089051665
  C        10.5772151332        5.4053025617       27.7592447134
  H         9.5064292381        6.6198903338       29.0958262607
  H        11.2318433595        6.6579391228       29.3115694910
  C         9.3326844683        4.7010750835       27.2069303530
  H        11.4182724875        4.7215279827       27.6930493812
  H        10.8411185553        6.2083723823       27.0549178367
  C         8.4932698002        5.6830678617       26.4498854999
  H         9.6607084981        3.8653066702       26.6747999418
  H         8.6956400669        4.2354766779       27.9833665020
  C         7.3203132375        5.0229821153       25.7045381689
  H         8.1021257666        6.3885424429       27.1449285196
  H         9.0609401406        6.2804581271       25.6945185190
  C         6.7223811937        3.7679701266       26.3562560388
  C         7.6967365377        4.3656645868       24.4254215113
  C         6.2553040665        6.1508332137       25.4280771447
  C         6.8645594526        2.7100337639       25.5000922335
  C         6.1676523285        3.4250032753       27.5913597613
  C         7.4793028786        3.0429894938       24.2552608465
  C         8.1638981513        4.9333646081       23.2442925416
  H         6.7275907319        6.8408652136       24.7389646164
  H         5.9642948955        6.7048416840       26.2393101138
  C         4.8937474007        5.5494433072       24.7375266509
  S         6.2526007960        1.2237608413       26.2329375993
  C         5.8858662255        2.0969174727       27.6597776913
  H         6.0203608080        4.1405454839       28.3063906313
  C         7.8209026220        2.3329374902       23.1046306861
  H         8.4283198196        5.9585453295       23.3129113997
  C         8.4583129310        4.2564056830       22.0414540804
  H         5.2173168941        5.4650642951       23.7003941797
  H         4.6727476767        4.5846549607       25.0540098080
  C         3.7361789702        6.5397319117       24.8245635660
  C         5.4129880419        1.3417693786       28.8617804338
  C         8.3890133114        2.9332594313       21.9328909165
  H         7.6608630296        1.2741675916       23.0882112558
  C         8.8361571936        4.6398902554       20.7893488513
  H         3.0410717938        6.3198910181       24.0065602250
  H         4.1798577898        7.4962529388       24.6134263236
  C         3.0272740541        6.4862186326       26.1530746056
  C         5.4199694989       -0.0931277053       29.0378432017
  C         5.0495136195        2.1600986993       30.0076413873
  C         8.7666714099        2.2572320523       20.6592298768
  C         9.0498089301        3.5713088377       19.9334025840
  S         8.9945492399        6.1286259622       20.0978739291
  H         2.5612403921        7.4988698552       26.1822127732
  H         3.7847780021        6.4089915523       26.9492854912
  C         2.0974618732        5.3010011893       26.4042713685
  N         5.6681478854       -1.0593834161       28.0907961193
  C         5.2440630548       -0.6402465895       30.3402376026
  C         4.7853438022        1.5884824884       31.1991181330
  H         4.7918197073        3.2412890784       29.8980643120
  C         7.6260887647        1.5512678075       19.9071039065
  C        10.0652676524        1.4435148663       20.7960968573
  C         9.2736895956        3.9451646611       18.5756240384
  C         9.3546121301        5.3290213707       18.5703768992
  H         1.4326442432        5.3757883714       25.5304242504
  H         2.7911228296        4.4985224631       26.3251179440
  C         1.2124637377        5.4333926090       27.5698355962
  S         5.7857715146       -2.4516000601       28.8522428661
  N         5.5158643775       -1.9698126528       30.3407292347
  C         4.8746058100        0.1106067034       31.4463576074
  H         4.6365989065        2.2564649967       32.0290581310
  H         7.2917149523        0.7831077183       20.4465463333
  H         7.9762229608        1.1294172754       18.9469536336
  C         6.3620220475        2.2742903298       19.5573383975
  H        10.1905749149        0.8377035882       19.9254641079
  H         9.8067470986        0.6087805662       21.4230698245
  C        11.3241336903        2.1949399527       21.3383412054
  H         9.3149271727        3.1978244914       17.8336837224
  C         9.6143929071        6.1544424009       17.3718454093
  H         0.3647285384        4.7834561244       27.4862064122
  H         0.7199601978        6.4063139557       27.6428371829
  C         1.9481420159        5.1498522397       28.8602431189
  C         4.7939776489       -0.5128902966       32.7510524066
  H         6.5578962009        3.3382990989       19.6846569340
  H         5.6940768297        2.0232507751       20.4096797497
  C         5.8048166202        1.9728811218       18.2408739642
  H        11.2344657487        2.5358077612       22.3929813785
  H        11.3555423352        3.1587184394       20.8612617506
  C        12.6325939131        1.4912831964       21.3272492679
  C         9.7223866276        7.6202748119       17.3512043584
  C         9.9434650522        5.4804238146       16.1129949907
  H         2.2398049664        4.0962280435       28.9045471292
  H         2.8845322659        5.6860312266       28.8652929150
  C         1.0957139882        5.5043485270       30.0388759572
  H         4.9408748908       -1.5635880783       32.6461552664
  C         4.4816737424       -0.1304730874       34.0190056339
  H         5.8135941934        0.9161991036       17.9744474226
  H         6.4858918775        2.3999489528       17.5257867278
  C         4.3799952880        2.4545106500       18.1370833338
  H        12.6184602898        0.6401834660       21.9902187826
  H        12.8317563404        1.1197958564       20.3359681777
  C        13.8487757442        2.3700869978       21.6204410691
  N         9.5038541084        8.4549399493       18.3615121511
  C         9.9575728447        8.2895016996       16.1501889494
  C        10.2315051244        6.1751330150       14.9306755232
  H         9.8608584823        4.4562330625       16.0601026564
  H         1.3982904517        4.8701317308       30.8960152321
  H         0.8806629243        6.5204840652       30.2734608135
  H         0.1603714016        5.0846167970       29.7115883695
  S         4.0184120455        1.4871772058       34.4433918994
  C         4.5351012224       -1.1431672616       35.1328941120
  H         4.2390375880        3.1811759435       18.9092324847
  H         4.1356054532        2.9148113040       17.1597884994
  C         3.3589551564        1.4508091781       18.4869156748
  H        13.6002333661        3.0199762161       22.4380532866
  H        13.9681415754        3.0594975742       20.7907842792
  C        15.0894368918        1.5242492539       21.8652567123
  S         9.7233904076        9.9984235132       17.8958376111
  N         9.9798908807        9.7289127213       16.3343293817
  C        10.1890566486        7.6295990590       14.9271023043
  H        10.3205655624        5.5802783626       14.0168073479
  C         3.9323114025        0.8935861822       36.0951604950
  N         4.1869490836       -0.4432157656       36.2430462860
  O         4.8353690366       -2.3021724849       35.0701301203
  H         2.5335687487        1.9786760629       19.0726481122
  H         3.8387785054        0.7169980233       19.1383871729
  C         2.8320429333        0.5318723912       17.3919756134
  H        15.0434704364        0.7896024608       22.6721285473
  H        15.1691310888        0.8618392341       20.9117161899
  C        16.2558624468        2.4262361563       22.0695381135
  C        10.4957235858        8.4330721974       13.7732694485
  S         3.4410990886        1.8549111687       37.4819051184
  C         4.2088370549       -1.1416912333       37.4837794984
  H         2.1385606628        0.9930561784       16.7547511089
  H         3.6538040144        0.1962636736       16.7706878006
  C         2.0955817820       -0.5915405904       18.1120872530
  H        16.0277671588        3.3600460229       22.5852653944
  H        16.5870194411        2.7659376367       21.0267020926
  C        17.4648361220        1.7637900125       22.6948403100
  H        10.2426960267        9.4404865654       14.0092483095
  C        10.9599925082        8.2418084147       12.4733554039
  H         3.3531593883       -0.8067829300       38.1216137040
  H         3.8418210962       -2.1761697845       37.3397428747
  C         5.5231832459       -1.1643277912       38.2521141062
  H         1.2039636093       -0.1504707112       18.5629145713
  H         2.6083309229       -0.8696471305       18.9919788852
  C         1.8565470028       -1.7766719298       17.2051261577
  H        17.5906139865        0.8023465207       22.2076975080
  H        18.2367146000        2.3968033731       22.4514973368
  C        17.5117034979        1.6581664092       24.1453250605
  S        11.4827463935        6.7608174464       11.8609133067
  C        11.1796155507        9.4336174659       11.6513639779
  H         5.6181572080       -1.1065490690       39.3150416796
  H         6.1353404918       -2.0455593951       37.9867793210
  H         6.1119208912       -0.3716023796       37.8163877077
  H         1.7012859688       -2.7070813796       17.7025947133
  H         2.7335487280       -2.1091501032       16.4955617255
  H         0.9925053165       -1.5576893769       16.5913383533
  H        17.5337600622        2.7162570769       24.4690570291
  H        18.3829227881        1.0972958772       24.5139675556
  H        16.6342503619        1.0508219594       24.3754472811
  C        11.7974927233        7.6927377120       10.4123134250
  N        11.6216890140        9.0266785507       10.4286278347
  O        10.9483625462       10.5195510965       12.0451323038
  S        11.9870527041        6.9916829517        8.7866675942
  C        11.8958166302       10.0171979135        9.3657310630
  H        12.2639469691       10.8708788595        9.9116768370
  H        12.7162809462        9.8169630790        8.7312080906
  C        10.5706543708       10.4368207205        8.6947588456
  H         9.7365802354       10.4106380971        9.3661396165
  H        10.6287279958       11.4910031814        8.4757685248
  H        10.3149964559        9.8234795512        7.8585383166
  H         4.3624321906        1.2229198317       12.8540430723
  C         3.7500637000        2.1089108484       12.8627750940
  H         4.3433070516        2.9737832482       13.1058972710
  C         2.8988509264        2.3349286320       11.5891377208
  C         3.0409913046        1.9503793119       14.1357553741
  C         3.6528425691        2.7500465005       10.2869657447
  H         2.2457323156        3.1718836420       11.8906609471
  H         2.3041700277        1.4483101145       11.3642329350
  H         3.6847470691        1.7619731012       15.0032392652
  H         2.3925377595        1.0710170786       14.0554179665
  H         2.3979125249        2.8270488138       14.2560616561
  C         4.3793323197        1.4911255658        9.7053415648
  H         3.0102229510        3.1059166783        9.4919709848
  H         4.4592258190        3.4490632419       10.5282508635
  C         5.2548589757        1.6460522797        8.3512296604
  H         3.6782447019        0.7225588806        9.4299626143
  H         5.0297154243        0.9432062663       10.4752016308
  C         6.3765680823        2.5999039330        8.5104701182
  H         4.6911707716        2.1068124576        7.5391768953
  H         5.5701805171        0.6230856830        7.8750443394
  C         7.7349915242        1.8960489494        8.9288434510
  H         6.5654888488        3.0678644330        7.4860764551
  H         6.1361102349        3.3569925494        9.3527167944
  C         8.9094753601        2.8485042659        9.0554087486
  H         7.8711440600        1.1116335532        8.1313539955
  H         7.5949348958        1.3622351210        9.8940424124
  C         8.4993670981        4.2068878402        9.7206043175
  C         9.2670225142        3.5646524332        7.7742430390
  C        10.2903900219        2.2272420339        9.6246237392
  C         8.6496963770        5.3171369807        8.8737473872
  C         7.9107388516        4.5597221316       10.9560248534
  C         9.1517372352        4.8532502147        7.6369573460
  C         9.8047891985        2.9769110891        6.6007665807
  H        10.0300572494        1.8297055003       10.5565158207
  H        10.7077099355        1.3858721955        9.0176101743
  C        11.3194567460        3.4001412568        9.8730499082
  S         8.3251813921        6.8265069711        9.6308616842
  C         7.8970027008        5.9381738594       11.0824235693
  H         7.7131818249        3.8421331975       11.7547150834
  C         9.5203779222        5.5668183451        6.5138431737
  H         9.9484239250        1.9044119140        6.5972987629
  C        10.1205271940        3.6907146732        5.4364228408
  H        10.8795361939        4.1648223485       10.4188046118
  H        11.6574786364        3.9443525812        8.9500338706
  C        12.4172405167        2.7918893344       10.7648606583
  C         7.4578812198        6.6496319615       12.3687368726
  C         9.9782398165        4.9817927199        5.3186744069
  H         9.3809412891        6.6196767343        6.5105987425
  C        10.5147379884        3.3129473548        4.2011725336
  H        13.2894504189        3.3964950144       10.4698514285
  H        12.6074187596        1.7705175260       10.3404938205
  C        12.3169100739        3.1647309744       12.2555194714
  C         7.3532608632        8.0476907188       12.5778005156
  C         7.0869332052        5.8936242545       13.6370127216
  C        10.2878187891        5.7581752681        4.0792036895
  C        10.6376000319        4.4743436005        3.3779728053
  S        10.7853568801        1.8060588652        3.4432320641
  H        13.2469605363        3.7177400905       12.5336862154
  H        11.5626600438        3.9524733011       12.4714078266
  C        12.2535661877        2.0012683358       13.2846922149
  N         7.5498485060        8.9861959139       11.5199907990
  C         7.0846209337        8.6939284376       13.7997265676
  C         6.8320968021        6.4855873348       14.8668324373
  H         7.0726426691        4.8649662029       13.6560576776
  C        11.6054426483        6.6456981567        4.2256490328
  C         8.9682932245        6.3726287753        3.3421709851
  C        11.0264931499        4.0487855057        2.0531576599
  C        11.1182641331        2.7045912733        1.9770757606
  H        13.2070197567        1.5006164602       13.0659379327
  H        11.4855625538        1.3405254582       13.0103374657
  C        11.9525979511        2.5098809582       14.7097475833
  S         7.2734911973       10.4827166265       12.1194903434
  N         7.0482182958       10.0901056333       13.7148646654
  C         6.9330073842        7.9844796846       15.0434549157
  H         6.5517631325        5.8706946989       15.6656178376
  H        11.3271976933        7.5463055999        4.8233210932
  H        11.9045916998        7.0107488123        3.2331724930
  C        12.7554439914        5.8689249558        4.8882484209
  H         8.5725666770        7.1867905536        4.0302485903
  H         9.3643760100        6.9228099215        2.4746524233
  C         7.7829161379        5.4934258476        3.0140878187
  H        11.1652447694        4.7621362579        1.2676622037
  C        11.3866716152        1.8732658446        0.7347244799
  H        11.8928819922        3.5738889487       14.8984565143
  H        11.0183221624        1.9392957019       14.9049303963
  C        12.9660247974        1.7732386875       15.6865860324
  C         6.6964906170        8.6310608622       16.3165863475
  H        12.3289990745        5.4217765049        5.7816506079
  H        13.1006076182        5.1040965382        4.1636108227
  C        13.9637502208        6.7819377387        5.1519909647
  H         7.5996625644        4.7900565600        3.8517694911
  H         8.2216828325        4.8906329468        2.1921212704
  C         6.5429351631        6.2291074351        2.3899423777
  C        11.4953878817        0.4585256239        0.6087388876
  C        11.5862166895        2.5188607482       -0.5779692153
  H        14.0013012058        1.6108840899       15.2757229479
  H        12.5085346587        0.7854373089       15.7064246493
  C        13.0142494575        2.2973882743       17.1592399568
  H         6.8209173366        9.6742152122       16.3115289345
  C         6.4183669684        8.1210519206       17.5673907278
  H        13.7733629876        7.2183397037        6.1193638951
  H        13.9968961045        7.6329887446        4.5007978343
  C        15.3299854478        6.0804937863        5.0361336139
  H         6.3769599656        7.0217925110        3.1542010716
  H         6.8504183681        6.8415559377        1.5468819296
  C         5.2912024055        5.4016554320        2.1293112575
  N        11.2541900378       -0.4301050045        1.6299303446
  C        11.7930684404       -0.1804697203       -0.5822622997
  C        11.9087487720        1.8601971801       -1.7714882255
  H        11.3096917103        3.5361488373       -0.6131747002
  H        13.7671164490        3.1036596332       17.2855754097
  H        13.2647072599        1.4289132107       17.7991370177
  H        12.0675155283        2.7102053043       17.4472039367
  S         6.2910373511        6.5083120299       18.0546955809
  C         6.3444196621        9.1056209305       18.7038229255
  H        15.0512267746        5.0906589948        5.4367474033
  H        15.5538958586        6.0060185117        3.9490258649
  C        16.3761918137        6.8428042470        5.8393449539
  H         4.8582182731        5.2746982922        3.1286362478
  H         5.7232896229        4.5205008580        1.6446586222
  C         4.2335873102        5.9612092430        1.2075318618
  S        11.3329313315       -1.9544975187        1.1605529510
  N        11.7171291763       -1.6006970073       -0.3777943647
  C        12.2525482329        0.4712867438       -1.7418324779
  H        11.9181215309        2.4697248936       -2.6305626133
  C         5.9849419682        7.1735776467       19.7068940835
  N         6.0573499354        8.5008408737       19.8583934602
  O         6.4085613510       10.3676006594       18.6773581712
  H        17.1681346035        7.1961763077        5.1620575937
  H        16.0344185640        7.6679271192        6.4010073195
  C        17.0697206167        5.9516420856        6.9066396842
  H         4.7576080937        6.1028399020        0.2141231358
  H         3.5978762583        5.1203114334        1.0030238606
  C         3.6342860799        7.1650942566        1.8303524476
  C        12.6234878684       -0.3094143425       -2.8886133715
  S         5.5219074903        6.1317198406       20.9935346996
  C         6.0745904254        9.1491095370       21.1196262654
  H        16.4096010159        6.1160110348        7.8376581144
  H        16.9198508438        4.8945577392        6.5681386114
  C        18.5402598145        6.1898514728        7.0367027355
  H         4.2108984054        7.3704169396        2.7634517272
  H         2.6699329460        6.9648901498        2.3014596586
  C         3.4740946068        8.2647647038        0.8364592366
  H        12.2917601853       -1.3061123477       -2.9047434877
  C        13.1026111672        0.0846913690       -4.0967303898
  H         5.3842990576        8.5340574896       21.7528804927
  H         5.6208641128       10.1376888031       21.0450462390
  C         7.4440270817        9.2551837682       21.7632669803
  H        18.9160757958        5.8327639388        8.0124158377
  H        18.7990305663        7.2397353905        6.9486057140
  C        19.3238400218        5.4987419114        5.9222246037
  H         3.2658893371        7.8359829071       -0.1343130287
  H         2.5851445281        8.7720821556        1.0691362728
  C         4.7169036920        9.2252427157        0.7469100325
  S        13.6340758781        1.6397210006       -4.5347044698
  C        13.1489403017       -1.0036236293       -5.1554682039
  H         8.1834104909        9.7217472161       21.0234886531
  H         7.8974348585        8.2878566749       22.0853120584
  H         7.5042289365        9.9682727467       22.6255637449
  H        20.4119919103        5.6798691480        6.1408393873
  H        19.2053096898        4.4745118163        5.7402188365
  H        19.1661926292        5.8210330697        4.9227398460
  H         4.5624585767        9.9976048805        1.5551333580
  H         5.6633135885        8.8488425647        1.1134965565
  H         4.7995662266        9.8377090053       -0.1752503483
  C        13.8426135307        0.9041682126       -6.1756334642
  N        13.6087663695       -0.4121164791       -6.3035534732
  O        12.8619862577       -2.1915922819       -4.9834612971
  S        14.3360067605        1.8505723476       -7.6034142394
  C        13.6451019197       -1.1636928146       -7.5799681614
  H        13.8601231503       -2.2514533870       -7.2271631643
  H        14.3185260136       -0.7288317596       -8.3511474078
  C        12.2450567296       -1.2600109010       -8.2456264563
  H        11.5528428296       -1.4816885009       -7.4668848812
  H        12.2474611436       -1.9145359180       -9.0758958610
  H        11.9980604298       -0.2699637376       -8.7036870171
