352
 i =    47000, time =    23500.000, E =        98.5057670464
  H        10.3896829765        5.1479263649       32.0234519442
  C        10.7332473136        6.0783415586       32.4854755421
  H         9.9358735501        6.6368972244       33.0625115194
  C        11.2403787259        7.1276331701       31.4530704878
  C        11.7291832043        5.6103311923       33.5431286424
  C        11.6090194124        6.6798154620       30.0185033194
  H        10.4106019026        7.8291597016       31.3276708173
  H        12.0674570779        7.7434984220       31.8374747906
  H        11.9514034248        4.5487210599       33.4884507506
  H        12.7204212772        6.0644865668       33.4389638668
  H        11.2842726404        5.7127624742       34.5311489972
  C        10.2961209794        6.6466271881       29.1869616547
  H        11.8754109979        5.6044050969       29.9878407718
  H        12.2638002123        7.4080307728       29.4363129990
  C        10.5659999713        5.8492825153       27.8801863704
  H         9.6020179589        6.0836895018       29.7515431231
  H         9.8595734230        7.6197047210       29.0592680598
  C         9.3679453343        5.0791943910       27.3620730229
  H        11.3385835207        5.1677269683       28.1556782423
  H        11.0699862685        6.5104874046       27.1660131269
  C         8.3731676026        5.9998958592       26.5252999840
  H         9.6872854035        4.2974506218       26.6698732341
  H         8.7078495431        4.7763949474       28.1573838070
  C         7.2111386871        5.4259751568       25.7490001712
  H         7.8705660915        6.6185212969       27.2947406202
  H         9.0040895799        6.5945943249       25.9018588619
  C         6.7840371289        4.1428616760       26.3399475853
  C         7.6632473745        4.7895943208       24.4805977813
  C         6.0116600985        6.2660111498       25.4943645892
  C         7.0308156848        3.0266524864       25.5721128592
  C         6.3713545593        3.7785426517       27.6153748157
  C         7.6208766906        3.4200265194       24.3813676491
  C         8.2203693831        5.4216884559       23.3755803081
  H         6.2989247278        7.2181035621       25.0858023484
  H         5.6295198348        6.4834509634       26.4947335201
  C         4.8355374401        5.5769339009       24.6554559041
  S         6.5244649513        1.4661402764       26.2300692742
  C         6.2101611671        2.4259718613       27.7067748441
  H         6.0803557456        4.5680780804       28.3646492429
  C         8.1444304427        2.7855372194       23.3403986396
  H         8.2037401715        6.5015527194       23.3298216268
  C         8.6727979462        4.7536387690       22.2908769180
  H         5.1832575618        5.3906245971       23.6204845083
  H         4.5301708601        4.6835105706       25.1220417154
  C         3.6018465088        6.4621318469       24.4289560445
  C         5.8304176642        1.7000464441       28.9730330956
  C         8.7094016293        3.4166572431       22.1848622346
  H         8.2230040064        1.6817512125       23.3084783048
  C         9.1336718570        5.0550145104       20.9789934866
  H         2.9924677971        5.9794651860       23.6856654340
  H         3.8852750936        7.4177607459       23.9951858588
  C         2.6544970618        6.7010820700       25.6565886362
  C         6.0014299356        0.3376726476       29.3011947346
  C         5.4807282521        2.5557772741       30.1583975973
  C         9.2401408368        2.6846641886       20.9447438015
  C         9.4431719693        3.9982564615       20.1557449764
  S         9.3776820071        6.6006399433       20.1423756646
  H         1.6897416536        7.1128889595       25.2514133054
  H         3.0624660777        7.3156953892       26.4478753612
  C         2.1110463500        5.4749234825       26.2385591330
  N         6.4342077474       -0.6789439353       28.3894309994
  C         5.6644974279       -0.2581255419       30.5236104080
  C         5.1702667722        1.9961943457       31.3924225673
  H         5.1887718005        3.6016679158       29.9426879381
  C         8.2432522359        1.6969082584       20.2624685934
  C        10.6582674818        2.0401159491       21.1557955872
  C         9.9520547867        4.3113262388       18.8779968373
  C         9.9673166946        5.7045318778       18.7182954417
  H         1.2757588773        5.2263346556       25.5539197756
  H         2.7213899735        4.6283685336       26.1437679414
  C         1.5288472920        5.4782688710       27.7281597316
  S         6.1593942287       -2.1331498976       29.1027876024
  N         5.8570061246       -1.6743663765       30.6244695193
  C         5.2733944613        0.5197295724       31.6298929955
  H         4.7487302521        2.7135285271       32.1089630570
  H         8.0884775469        0.8088383929       20.9601067722
  H         8.6043624292        1.1730356430       19.3993514978
  C         6.8959452410        2.3139263915       20.0331007274
  H        11.0371942734        1.8437665750       20.1474779923
  H        10.4906169823        1.0832548225       21.6215409504
  C        11.6564370416        2.9004554359       21.8444816437
  H        10.1483937446        3.5062559411       18.2238279956
  C        10.1884093549        6.3416795635       17.3946182005
  H         0.9151467147        4.5553304730       27.8081121363
  H         0.9509877107        6.4016302564       27.7749849871
  C         2.5329032916        5.5061600441       28.8293614049
  C         5.1239275819       -0.1343437813       32.8742207235
  H         6.8191605480        3.4539890619       20.2646922452
  H         6.0884359214        1.8706866112       20.7497432942
  C         6.3857481210        2.1706726401       18.5786496762
  H        11.3714458095        3.2209073019       22.8118537531
  H        11.8475924873        3.7824245510       21.3155457353
  C        12.9632730706        2.0762073603       21.8799543860
  C        10.2212634814        7.7501939810       17.1519344017
  C        10.3742288161        5.4617555346       16.2393411516
  H         3.2145603307        4.6512614715       28.6443956542
  H         3.2507065795        6.4045577100       28.7530472228
  C         1.9576683530        5.4663730718       30.1777953356
  H         5.5036308066       -1.1050452208       32.9300834634
  C         4.6516794473        0.3713673399       34.0419471782
  H         6.4228330136        1.2111533617       18.1103807947
  H         6.9299549514        2.8721449074       17.8859321643
  C         4.9729858396        2.6693646286       18.5429878691
  H        12.9284126402        1.3102784020       22.6260046356
  H        13.1963280520        1.6970348602       20.9195587702
  C        14.0866149865        2.9709077621       22.2319160500
  N         9.8514974622        8.6809588314       18.0953762077
  C        10.5253391891        8.3021781893       15.9543252375
  C        10.6872824894        6.0310182615       15.0260699281
  H        10.2326185685        4.3847856886       16.3253403244
  H         2.8074053372        5.3746010383       30.8474382244
  H         1.2407963548        6.2592702998       30.4864517308
  H         1.3749500033        4.5749736279       30.2212635987
  S         4.1622492606        1.9900564853       34.4659757591
  C         4.7043833220       -0.5580796294       35.1923888855
  H         4.8203982831        3.4715847390       19.2548541317
  H         4.7738930306        3.1876128154       17.5620016046
  C         4.0016146396        1.5291307665       18.8761431558
  H        13.8696494929        3.5931763882       23.1087252760
  H        14.2355735123        3.7319330667       21.4450800445
  C        15.3571525298        2.0664211753       22.2780503560
  S        10.1535014157       10.1714275682       17.4919132110
  N        10.6247383338        9.7033835972       16.0216879709
  C        10.8313782840        7.5170706591       14.8585607556
  H        10.8634780962        5.4345254659       14.1275291791
  C         4.1721809137        1.3895761874       36.1607362846
  N         4.2936347704        0.0196738847       36.3001302103
  O         5.1223923375       -1.6744445711       35.1586974787
  H         3.1238619689        2.0391808500       19.4062862146
  H         4.4456539917        0.9166343451       19.6574123443
  C         3.6768927561        0.5760052798       17.7098636684
  H        15.1876066532        1.2590328563       23.0025485596
  H        15.4803090932        1.6390495590       21.3059315006
  C        16.5941707675        2.8471574456       22.7179591662
  C        11.1025488996        8.1568409249       13.5903075528
  S         3.4460807600        2.2400794164       37.4891759777
  C         4.4053248254       -0.7027235590       37.5598757351
  H         3.2979312908        1.1072589871       16.7922267201
  H         4.5718716013       -0.1738113918       17.5315208251
  C         2.6680017283       -0.5020404211       18.1317084999
  H        16.3426771559        3.2466662813       23.7168250415
  H        16.7543655685        3.7695943616       22.0868340075
  C        17.8840041276        2.0569359027       22.6392587242
  H        10.8171268243        9.2079774091       13.6469798582
  C        11.5927658877        7.8343127676       12.3704782989
  H         3.9949655257       -0.1168419522       38.3500783412
  H         3.7443788016       -1.6038780057       37.4214813800
  C         5.8343980316       -0.9988252103       37.9367227412
  H         1.6984632321       -0.0188840022       18.1413117500
  H         2.8688323342       -0.8500219683       19.1338135626
  C         2.6990991588       -1.6812539861       17.1379894792
  H        17.7620813763        1.2348359549       21.9851727471
  H        18.7810682677        2.6462422982       22.2658092861
  C        18.3409741313        1.5006314563       24.0062363925
  S        12.2333983381        6.3085480480       11.8545369313
  C        11.6395881773        8.9216894805       11.3680289146
  H         6.5005021966       -0.2166303666       37.6001739779
  H         5.9172671182       -0.9491779141       39.0018702907
  H         6.3423513718       -1.8970886765       37.5728374629
  H         3.5938696551       -1.6942893379       16.4409652584
  H         1.7774828687       -1.6209202579       16.4686352984
  H         2.6826654723       -2.6498584995       17.6009304136
  H        18.6249391367        2.3440038990       24.7796923514
  H        19.2055077922        0.8964978410       23.8978679085
  H        17.5694791952        0.8610575640       24.3870616369
  C        12.7345113842        7.2685356749       10.4138366588
  N        12.3316261184        8.5565055737       10.3081187631
  O        11.3205476516       10.1113864817       11.5820627745
  S        13.3554604196        6.5428680526        8.9657364119
  C        12.5151988353        9.4891506038        9.2000663272
  H        12.5445370508       10.5270772285        9.5929849035
  H        13.4321834364        9.3469871467        8.6409744479
  C        11.2915159583        9.4670857226        8.3309694312
  H        11.4574871045        9.9043283492        7.3575404833
  H        10.9647339632        8.4642221383        8.1157213781
  H        10.3775282640        9.8782844346        8.7686211225
  H         4.0285235753        3.5481303857       12.6006123571
  C         3.2594793496        2.8604646076       12.5108541974
  H         2.2824560323        3.3046961885       12.4047582841
  C         3.5721195455        1.9542234388       11.3410523366
  C         3.2389191799        2.0656420300       13.7777029393
  C         4.7808361356        2.4492263966       10.4780331792
  H         2.6243580353        1.9014736834       10.7627567474
  H         3.7420604778        0.8944952297       11.6385250762
  H         3.1664587533        0.9578509697       13.6937730920
  H         2.4667844799        2.3464248526       14.5307436511
  H         4.2947079364        2.1672391649       14.2027444249
  C         5.2554138239        1.3884665337        9.5349858144
  H         4.4137797736        3.2215199631        9.8611876351
  H         5.6110986795        2.7899761729       11.1647276813
  C         5.7795987722        1.8187246384        8.1621558499
  H         4.4967041804        0.5903003063        9.4706164968
  H         6.1025049255        1.0059723452       10.1005702248
  C         7.0305058744        2.6860981827        8.3251197470
  H         4.9391263153        2.3436273683        7.7180806785
  H         6.0246045371        1.0640027534        7.4737582007
  C         8.1983085843        2.0781703246        9.1001515438
  H         7.2808343311        2.9025459297        7.2762505685
  H         6.7038743882        3.7455945001        8.5836879485
  C         9.4780989100        2.9895768920        9.0012442712
  H         8.3570475263        1.0636547960        8.7745604685
  H         8.0499567869        1.9109209298       10.1144356226
  C         9.0919184486        4.2878741899        9.7036575826
  C         9.8796136266        3.6814774263        7.7712009430
  C        10.6562743281        2.3455056799        9.6480285758
  C         9.3490332990        5.3944216234        8.9009617387
  C         8.4698098142        4.6014636350       10.9115754407
  C         9.8033125529        5.0368541480        7.6556653433
  C        10.2830706741        3.0045809682        6.6023610384
  H        10.3404582715        1.8690011590       10.6306091598
  H        11.0061773176        1.4869120623        9.0675231767
  C        11.8143626557        3.2927468082        9.9969662617
  S         8.9316001396        6.8603120952        9.7129868566
  C         8.3204054067        5.9595068754       11.0511619597
  H         8.2262208062        3.8089639311       11.5976061105
  C        10.2268707782        5.6469305929        6.5169730528
  H        10.3145422959        1.9414414048        6.6320556619
  C        10.5677006522        3.6440547261        5.4387593635
  H        11.4734054654        4.1955338382       10.4451210793
  H        12.3892006900        3.6187249713        9.0717452649
  C        12.6209855480        2.5521150024       11.0501148523
  C         7.8288207033        6.5824016338       12.4134008848
  C        10.5123871052        5.0143850341        5.3454557623
  H        10.2747671842        6.7107143694        6.4616060484
  C        10.9474363646        3.2895545536        4.1646577996
  H        13.5973327564        2.9049252037       10.9648563669
  H        12.7178075604        1.5276200409       10.7449987041
  C        12.0741677592        2.6627058278       12.4499476647
  C         7.8655416229        8.0058852738       12.6761443052
  C         7.5049343004        5.7366360037       13.5996084677
  C        10.8898441743        5.7804614177        4.0318018126
  C        11.1650739971        4.4189278378        3.3735595660
  S        11.2520190849        1.8116095755        3.4087104257
  H        11.5262847868        3.5634664260       12.5460746902
  H        11.2364233768        2.0104089925       12.6758930604
  C        13.1518609636        2.4821976278       13.5743447624
  N         8.1510270184        8.9586327805       11.6928211605
  C         7.6599935749        8.5397755522       13.9241216590
  C         7.3388590205        6.3328362994       14.8539298336
  H         7.5020167790        4.6622196461       13.5437522984
  C        12.1871241546        6.5771370608        4.0961003224
  C         9.7369960783        6.5843326846        3.3337990925
  C        11.5708393302        4.0015799779        2.1055269063
  C        11.5929761281        2.6295166703        1.9207548505
  H        13.4448859097        3.5077625899       13.7725974987
  H        13.9143713463        1.8066235990       13.1246242217
  C        12.4663999054        2.0264165785       14.8360372935
  S         8.1598939631       10.4049345870       12.4283333933
  N         7.8466611736        9.8660340396       13.9472097394
  C         7.3063478445        7.7908017491       15.0462343945
  H         7.2648610615        5.7544744722       15.7147148241
  H        12.0301483537        7.6381719016        4.3376657315
  H        12.5866658985        6.5455673978        3.1245792037
  C        13.1739900084        6.0157959969        5.1010457682
  H         9.4140378608        7.4059552541        4.0072660901
  H        10.1705170121        7.0110364615        2.4620077590
  C         8.4924288614        5.6979443436        3.0196660449
  H        11.8294067696        4.7541255183        1.3487174566
  C        11.9227575853        1.8700462136        0.6404941890
  H        11.6788345626        2.7569408935       14.9903977819
  H        11.8957980833        1.0942459221       14.7046637921
  C        13.4041362943        1.9201175904       16.0926967434
  C         7.1093451985        8.4730036273       16.2680986551
  H        12.9139499385        6.0570429542        6.1634393661
  H        13.3155776385        5.0118994043        4.8939362976
  C        14.5140290268        6.6656683421        5.0710584404
  H         8.2079799219        5.1959595626        3.9534914530
  H         8.7334276991        4.9416226092        2.2379287510
  C         7.2553688324        6.3647897162        2.4146505774
  C        12.0063032592        0.4636550206        0.4909270706
  C        12.1976694243        2.6520693071       -0.5778142440
  H        14.3450799648        2.3183929711       15.9120969760
  H        13.6651951565        0.8804727455       16.2684695384
  C        12.7960126554        2.6189026722       17.3579340471
  H         7.4514976426        9.5228973320       16.3464036703
  C         6.6596298722        8.0085617865       17.5171487643
  H        14.4865442507        7.3580822202        5.9342154230
  H        14.7317684628        7.3302057587        4.2317087402
  C        15.6544692374        5.6946343311        5.3389310668
  H         6.8901499407        7.0213934628        3.1711578587
  H         7.5201787942        6.8902352086        1.4657063700
  C         5.9416672150        5.6056497755        2.3061442383
  N        11.7812428030       -0.4171153107        1.6036736458
  C        12.2974828612       -0.1862371216       -0.6598099846
  C        12.5544479949        2.0028313178       -1.7336839282
  H        12.0297411029        3.7337987208       -0.5176832334
  H        11.8656191943        2.1759068354       17.7455119631
  H        12.5810498744        3.7723806589       17.3032955166
  H        13.4927359137        2.6927604703       18.1103511367
  S         6.1043362403        6.3999583666       17.9187460025
  C         6.5335131468        9.0328972528       18.5837244616
  H        15.4054818356        4.8748131291        5.9806849973
  H        16.1688648629        5.4120762483        4.3932823346
  C        16.8555745887        6.2806158476        6.0353964572
  H         5.4916105750        5.4575427061        3.2471196581
  H         6.1501956336        4.5894990780        1.9472340730
  C         4.8922627840        6.3700673410        1.4158048870
  S        12.0509433996       -1.9128890682        1.1315152554
  N        12.3883964576       -1.5366464156       -0.4157736402
  C        12.5190142910        0.5198486080       -1.8377866536
  H        12.7208932442        2.5749995157       -2.5893393560
  C         5.9624537512        7.0526072858       19.5419565533
  N         6.0529371979        8.3648282628       19.6814012086
  O         6.7044393879       10.2444238125       18.4287964080
  H        17.3907275432        6.9071512004        5.3474375993
  H        16.4955784860        6.9164944694        6.8653274338
  C        17.8364400387        5.1576681995        6.5630458118
  H         5.3926623326        6.4148873780        0.4730469984
  H         4.0694607113        5.6178688063        1.3538267337
  C         4.3677923205        7.6453683269        1.7900530758
  C        12.8018462017       -0.2087872141       -3.0099016651
  S         5.3015172651        6.0939543865       20.8976555442
  C         5.8435875828        9.0424440687       20.8984366475
  H        17.2757289199        4.4273583254        7.1026197188
  H        18.3986740392        4.5347075098        5.8918662595
  C        18.8469503189        5.9165758293        7.5076665996
  H         4.8214379090        8.0681257118        2.6549624207
  H         3.3234261718        7.4618055921        2.0312752973
  C         4.4879611565        8.6712618847        0.6307279438
  H        12.3198467781       -1.1569262728       -2.9860639630
  C        13.3459704014        0.0772242392       -4.2919388895
  H         5.2308465333        8.6105132341       21.6448357941
  H         5.3248657289        9.9640312586       20.5561896993
  C         7.2338686633        9.3672666128       21.6776474040
  H        19.2093902913        5.2054232268        8.2497093275
  H        18.5172908323        6.8938217839        7.8547894269
  C        20.1090420055        6.1642926074        6.6789350110
  H         5.5047143985        9.0820176273        0.5259570315
  H         4.1879003050        8.1704756232       -0.3185354268
  C         3.6076430757        9.8956724015        0.8484108831
  S        13.8861119142        1.5683616374       -4.8385834822
  C        13.4395922445       -1.0699535087       -5.1509989926
  H         8.1483321406        9.0181668020       21.0758906117
  H         7.4391812696        8.9969541943       22.7327789597
  H         7.2536838516       10.4628174602       21.6200347539
  H        20.4449289048        5.1822025796        6.1369655712
  H        19.8133366878        6.8747960471        5.8773419944
  H        20.9450138739        6.5611487862        7.2527677600
  H         4.0163147231       10.3825985875        1.7110747093
  H         3.5839833406       10.5446280964       -0.0258023446
  H         2.6862571394        9.6236762742        1.3090666826
  C        14.2928910759        0.6040555605       -6.3592232162
  N        14.0329565843       -0.7388887297       -6.2756014578
  O        12.8244088424       -2.1510145994       -4.9073998894
  S        14.8928098214        1.1997729567       -7.9454009629
  C        14.1105194701       -1.6662553254       -7.3856488604
  H        14.1331839199       -2.6948543603       -7.0498601406
  H        15.0050881595       -1.4165442289       -7.8932598300
  C        12.8588632130       -1.6202558636       -8.3360778039
  H        12.6263038009       -2.5221774450       -8.8768445145
  H        12.8938979953       -0.8280504395       -9.0495420470
  H        11.9190515036       -1.5153836078       -7.6937498593
