352
 i =    80300, time =    40150.000, E =       100.4300094875
  H        11.9754157581        7.2718159668       32.2000101781
  C        11.6880088977        6.1921569395       32.1695621493
  H        12.4759892493        5.6748126521       31.6593200110
  C        10.4398238814        6.2449735399       31.3012184711
  C        11.3357644582        5.6453226368       33.5287072256
  C        10.8126910212        6.4462759854       29.8781886354
  H         9.7616529296        5.4394609017       31.3869215120
  H         9.8129046345        7.0227324441       31.7158098688
  H        10.6743730729        6.3250711303       34.0315299711
  H        10.8570983193        4.6307792895       33.4187280312
  H        12.2377493306        5.5666917252       34.1006491886
  C        10.7739879514        5.1116026647       28.9860485274
  H        11.8553107584        6.7514864233       29.7735521684
  H        10.1372416582        7.2010790976       29.4855250603
  C        11.0295341857        5.3491896899       27.4580282303
  H        11.3839342121        4.4202551197       29.3548873379
  H         9.8121681597        4.7432008443       29.0296987847
  C         9.9903068950        4.7451670800       26.4531898009
  H        11.9768412851        4.7973686612       27.2390547097
  H        11.2152789859        6.4324160785       27.3429417123
  C         8.8561757953        5.7150058756       26.3240963887
  H        10.6332560761        4.5514255549       25.5459021315
  H         9.7491084071        3.7584448495       26.9012256368
  C         7.6674701027        5.1453731538       25.5012363101
  H         8.5024329432        5.9392785237       27.3060340807
  H         9.2230785665        6.5929378729       25.8589255066
  C         7.2105473495        3.8315037727       26.1291014531
  C         8.1139260681        4.4306365304       24.2376263517
  C         6.5287445900        6.1294827514       25.4350568760
  C         7.4491597523        2.7302418305       25.3120074282
  C         6.6445268645        3.3483214734       27.3305676546
  C         8.0331541150        3.1144449160       24.1070146028
  C         8.5190144564        5.0773211123       23.0962844286
  H         6.6523487460        7.0720412970       24.9028817506
  H         6.3235816012        6.3714520273       26.5024941358
  C         5.2032723860        5.6408855312       24.9360930864
  S         6.9966287881        1.1993709583       26.0459257141
  C         6.5235629582        1.9928113906       27.5002343490
  H         6.3450236725        4.0872586561       28.0506552741
  C         8.4399124644        2.4841383198       22.9909769092
  H         8.7168312498        6.1251491405       23.2276611367
  C         8.9167533773        4.4836743105       21.9809003328
  H         5.3219628611        5.0296260209       23.9756348743
  H         4.8855393872        4.8321468219       25.6582089434
  C         4.0441521517        6.5692025228       24.6393819669
  C         6.0141641073        1.2863419220       28.7345034759
  C         8.9804560389        3.1069129312       21.8444411292
  H         8.3688728309        1.4155580316       22.9106129917
  C         9.3288371543        4.9492441800       20.7496638822
  H         3.4660434296        6.0984305361       23.8660558331
  H         4.4582420498        7.4020569733       24.0806289268
  C         3.1724774965        6.8141276338       25.8410967915
  C         6.0374996344       -0.1275524808       28.9841615114
  C         5.4275407882        2.1012083449       29.8073318682
  C         9.3144320962        2.4727443859       20.5416655248
  C         9.5835115696        3.8774538056       19.9002736647
  S         9.6414545801        6.4768206172       20.0178074378
  H         2.8468679694        7.8420802861       25.7428442527
  H         3.7915845351        6.7916203107       26.7460994979
  C         1.9721009769        5.9366822490       25.8828196109
  N         6.5013285231       -1.0762474132       28.0716208858
  C         5.6918790299       -0.6799263248       30.1745742870
  C         5.0953218576        1.5494376554       31.0616180168
  H         5.2282249769        3.1211093660       29.6202762933
  C         8.1104729393        1.7701564753       19.8993919677
  C        10.5769204707        1.6334828112       20.6513444845
  C         9.8889277586        4.2942210737       18.5915460841
  C        10.0603468965        5.6388899748       18.5009757498
  H         1.4955210124        5.9249835442       24.9542558979
  H         2.3792079514        4.9349673935       26.0522994237
  C         1.1418308851        6.1438808159       27.1330524904
  S         6.5035828939       -2.5162767822       28.8505685477
  N         5.7638750896       -2.0508607886       30.2518121684
  C         5.2954078015        0.1485094598       31.3208177811
  H         4.6656328952        2.1987314301       31.8038145235
  H         7.7407889058        0.9050398020       20.4878721097
  H         8.4507941542        1.2548706072       18.9651709325
  C         6.8934962524        2.6092799216       19.5104081333
  H        10.9096709892        1.2700694384       19.6625065318
  H        10.3347389548        0.6987968202       21.1163086721
  C        11.6715692920        2.3760608057       21.3486786468
  H        10.0410138915        3.5558240228       17.8206058785
  C        10.2420974691        6.3832049577       17.2145303348
  H         0.3050318111        5.3873000564       27.1334660156
  H         0.6567268281        7.1057518709       27.1491766994
  C         1.9523333047        5.8352210228       28.3493135459
  C         5.1893776162       -0.4343508449       32.6326612059
  H         6.9994950623        3.0250154570       18.5032068573
  H         6.9009337290        3.4779506728       20.1992326538
  C         5.6595438649        1.7860717935       19.5617277902
  H        11.5011057042        2.3420404715       22.4547605855
  H        11.7574778780        3.4569746583       21.1888223565
  C        13.0219597750        1.6273008312       21.3301899779
  C        10.3184290582        7.7640782179       17.0767214014
  C        10.5301421015        5.6446407529       15.9864218082
  H         2.6014446487        4.9618809943       28.2304089268
  H         2.6380481225        6.7121866623       28.6152793896
  C         1.1844496338        5.6907608456       29.6608327789
  H         5.2765316653       -1.5271008926       32.5254005027
  C         4.8665014355        0.0711417837       33.8636309402
  H         5.2861859220        1.4713827169       20.5713491775
  H         5.9237431716        0.8828079145       19.0817588811
  C         4.5870402871        2.4158068439       18.6720771985
  H        13.0423765246        0.8234349671       21.9901301738
  H        13.2425879073        1.2872705280       20.3223986137
  C        14.1452827036        2.5266228910       21.7554882802
  N        10.1660510183        8.6610407298       18.1354695821
  C        10.7355121169        8.3824636641       15.9168511369
  C        10.8787004438        6.2458147766       14.7716606014
  H        10.5159464989        4.5890599821       16.0493796178
  H         0.3033983415        5.0938488981       29.5702578137
  H         1.8264929866        5.2348891078       30.3760984369
  H         0.8051861988        6.6249472538       30.0599759069
  S         4.6750378735        1.6781494225       34.3400386018
  C         4.7431215582       -0.9657813227       34.9276499398
  H         4.4422762069        3.3961319240       18.9956461490
  H         4.9974290433        2.2660153799       17.7283459340
  C         3.1639868310        1.7624906768       18.7780969665
  H        13.6861043739        3.4092279228       22.2056955912
  H        14.6511250474        2.9738098789       20.8400585008
  C        15.0192996131        2.0180460454       22.8744842685
  S        10.4317276174       10.1552850405       17.5833386157
  N        10.6532769076        9.8289806219       16.0585510740
  C        10.9984384121        7.7048023817       14.6942883811
  H        11.2283200071        5.6352356245       13.9080835612
  C         4.3604790960        0.9895568043       35.9336244362
  N         4.4060016361       -0.3635486138       36.0563543407
  O         5.0052567187       -2.1545781142       34.7518286041
  H         2.4796571271        2.5297774773       18.6142646705
  H         3.0324700413        1.3537161324       19.7267567164
  C         2.8693468718        0.7361301101       17.7103338681
  H        14.4409031097        1.8719295754       23.7998627307
  H        15.3939023095        0.9697326852       22.7351187213
  C        16.1173816231        2.9897104964       23.2733405710
  C        11.1987572307        8.4875306494       13.5069483722
  S         3.9985434521        1.8857403829       37.3940024348
  C         4.2751238912       -1.0329355265       37.3548007665
  H         2.6169359322        1.2362425280       16.7552899392
  H         3.7490453758        0.1614211442       17.4471628378
  C         1.7697052152       -0.1543364040       18.1084451683
  H        16.2167514523        2.9827775855       24.3787060153
  H        15.7670077301        3.9232353560       22.9946841857
  C        17.4708533062        2.5992139857       22.6492243788
  H        11.0930371667        9.5288997646       13.6418032689
  C        11.5593462689        8.1344884671       12.2409160257
  H         3.7489368951       -0.5062751859       38.1350972009
  H         3.6376207394       -1.9159763588       37.0938409222
  C         5.6845182344       -1.2906739018       37.9373778014
  H         1.3092992368       -0.4988696261       17.2013796095
  H         1.0358940147        0.3875136345       18.6888103945
  C         2.2276067581       -1.3451827409       18.9212161142
  H        17.4730233062        2.1046505030       21.6945189732
  H        17.9563716028        3.5611681869       22.4665346073
  C        18.5105227592        1.8308782794       23.4569262181
  S        12.0123793435        6.5142256322       11.6686374969
  C        11.6187349878        9.1891746251       11.2146471499
  H         5.5155192976       -1.9286295017       38.8184905424
  H         6.3838467841       -1.8265324014       37.2567222164
  H         6.0860165451       -0.3501354794       38.1995614144
  H         2.6816075593       -2.0736233727       18.2786043130
  H         1.3016061377       -1.7095267437       19.3892139118
  H         3.0720907982       -0.9903617877       19.5633692195
  H        19.3937084763        1.6787932669       22.8192031321
  H        18.0477158490        0.9100657699       23.8650610952
  H        18.7475128615        2.4659639722       24.2880222874
  C        12.4764630440        7.3429762066       10.2145793518
  N        12.1008558169        8.6497458285       10.1463173998
  O        11.3507104816       10.3689816692       11.4046973608
  S        12.8474447115        6.6250986258        8.6300601784
  C        12.3399923163        9.5095922724        9.0516661945
  H        12.8385013207       10.3984725008        9.4024560618
  H        13.0232196214        9.0505364731        8.3957924329
  C        11.0503194736        9.8422011920        8.2453064906
  H        10.6740776176        8.9540804895        7.7178419224
  H        10.2063930341       10.0749982129        8.7987210731
  H        11.3046549658       10.6722342003        7.5498583755
  H         2.8615888944        1.2788141299       13.1840577097
  C         3.6734509183        1.9442198335       12.8821759979
  H         4.5061668228        1.3512675923       12.6701121927
  C         3.2682224274        2.6302428674       11.6093705537
  C         3.9202916603        2.7485934750       14.0788656339
  C         4.4101606114        2.7973690577       10.7344581401
  H         2.9457762043        3.6471677151       11.8718853845
  H         2.4211514433        2.1071842839       11.0943418436
  H         4.3002633661        2.2326654618       14.9475542875
  H         2.9990335435        3.2974220459       14.3180216759
  H         4.7067037858        3.4594888861       13.8591293854
  C         4.7460516484        1.5073999370       10.0397463356
  H         4.0639253786        3.5217945152        9.9735212613
  H         5.2783888618        3.3250469533       11.1677416992
  C         5.4541335826        1.5631882281        8.6333809177
  H         3.8496200540        0.9121681420        9.9139050162
  H         5.4725219397        1.0491719812       10.7434212213
  C         6.5507066816        2.5415281716        8.4730424458
  H         4.7227623170        1.7827403995        7.8673526943
  H         5.8246956277        0.6205662555        8.3535953440
  C         7.7829797090        1.9070319349        9.1059620668
  H         6.7627405603        2.7208498956        7.4132379187
  H         6.4087063075        3.4695648989        9.0393433300
  C         9.0588278962        2.7939629063        9.1890678947
  H         8.0889273092        1.0421417762        8.5348633728
  H         7.4953193958        1.6990379258       10.1299156855
  C         8.7889535639        4.1508778669        9.8834131456
  C         9.3523065255        3.5564905731        7.9436221839
  C        10.2844459525        2.1048102906        9.8270409785
  C         9.0721006902        5.2432317263        9.1577941117
  C         8.2063595429        4.5499314775       11.0901215740
  C         9.4227285540        4.8861471806        7.8942177898
  C         9.9158173524        2.9625401384        6.7888073340
  H         9.9511483211        1.4383073149       10.5509304884
  H        10.6791177469        1.4212095851        9.0836725653
  C        11.3284813347        3.1531006568       10.3139041550
  S         8.6546618124        6.7524346156        9.8498941575
  C         8.1794188004        5.9282399962       11.2835187211
  H         7.9539461743        3.8080631525       11.8509859731
  C         9.7803607871        5.4645920772        6.7385966830
  H        10.0610836456        1.9213133049        6.8247074872
  C        10.2908497759        3.5554801575        5.6269385460
  H        10.9989481481        3.9163317499       11.0873503744
  H        11.7762333549        3.6290979049        9.4469585225
  C        12.5355350952        2.5542690785       11.0890485069
  C         7.8608969590        6.5619269649       12.5736530519
  C        10.2318080645        4.8772802595        5.5381529145
  H         9.6965908006        6.5595675112        6.7934585932
  C        10.7927719462        3.1733786781        4.4576163776
  H        13.3281790024        3.2405580562       11.2457162912
  H        12.9652198763        1.7418371353       10.4719308161
  C        12.1565240007        1.9343113422       12.4671513926
  C         7.7690835134        7.9367130288       12.7879952945
  C         7.4919084771        5.7599429457       13.6958099899
  C        10.7679470906        5.6368810611        4.3652550000
  C        11.0454038104        4.2990135592        3.6511343197
  S        11.1608312417        1.7005398702        3.7767055431
  H        11.4717695485        1.0660116167       12.4040103556
  H        13.0312934911        1.4068804234       12.8391769065
  C        11.7395537528        2.8581718949       13.5947100943
  N         8.0865120514        8.8766905249       11.8154144865
  C         7.5335260469        8.5298272455       14.0111697776
  C         7.2164593644        6.3581463778       14.9294620992
  H         7.3590528539        4.7075837291       13.6341319451
  C        12.2017171422        6.3228166981        4.5751610778
  C         9.7580235153        6.6135377041        3.6741905798
  C        11.5352629668        3.8664332478        2.4043066939
  C        11.5589119535        2.4934878674        2.3392666100
  H        10.7768612054        3.4152241640       13.3343586380
  H        12.4833342903        3.6776667166       13.5246412048
  C        11.6163988082        2.1142154794       14.8875372791
  S         8.0786216720       10.3810803109       12.4927885098
  N         7.6829220823        9.8866976967       14.0075382354
  C         7.2256964530        7.8204437243       15.1362444338
  H         7.0299573184        5.6551837156       15.7872210264
  H        12.1221686400        6.9694449131        5.4337059583
  H        12.4979333782        6.9475295861        3.7250688815
  C        13.4267217637        5.4462069857        4.9202200257
  H         9.6001449979        7.5349196218        4.2234860917
  H        10.1382701605        6.9063873231        2.7094179755
  C         8.3730855740        6.0044474775        3.4493847573
  H        11.6892882671        4.6275896647        1.6322845261
  C        11.8336428675        1.7801193076        1.0991202435
  H        10.7188318644        2.3824125121       15.4538534360
  H        11.5028867852        1.0266699443       14.7442024089
  C        12.8281734156        2.3694565851       15.8317659208
  C         7.0178887704        8.5069427260       16.4264984370
  H        13.1496928344        5.0298439515        5.8669515256
  H        13.5413274060        4.7881224787        4.0867124898
  C        14.6403017207        6.2486814479        5.0868618746
  H         7.6612046227        6.7537963309        3.8474430234
  H         8.2689074492        5.0642365291        4.0063305737
  C         8.0734652271        5.7733136213        1.9403420631
  C        11.9288671324        0.3629307400        0.9298529124
  C        11.8656068314        2.5110250768       -0.1818455441
  H        12.9165221698        3.5195266968       15.9086195670
  H        13.6606913188        1.9721463346       15.2546763964
  C        12.6241283099        1.8678308733       17.2430655592
  H         7.1598204913        9.5556137822       16.2949999603
  C         6.7008270856        8.1181315373       17.7122392523
  H        14.4133456445        7.1333379400        5.6277581313
  H        15.0394502960        6.5670521078        4.1555157206
  C        15.8250101653        5.5065565094        5.6849926616
  H         8.0798098457        6.7432531149        1.4649104514
  H         8.9103635557        5.1819738122        1.5485477208
  C         6.7886160364        4.9756057016        1.7253389861
  N        11.8512423981       -0.6264878188        1.9529441789
  C        12.3315632160       -0.2860166632       -0.2712195848
  C        12.1568574297        1.9085152257       -1.4529908687
  H        11.5671360594        3.4857152623       -0.1268775004
  H        13.3161418844        2.3154453732       17.8706336313
  H        12.7276730675        0.8080995279       17.2002738232
  H        11.6219961560        2.1386301375       17.6098987472
  S         6.3994395484        6.5293291988       18.3574700750
  C         6.5752170047        9.1694394342       18.7685620616
  H        15.3949894027        4.8244995945        6.3596025730
  H        16.4480586358        4.9300746942        4.8851757902
  C        16.7626924193        6.4107810805        6.4172053870
  H         6.7990147923        4.1231644513        2.3576056926
  H         6.8782911228        4.5372315797        0.7183334973
  C         5.4897983322        5.8313032642        1.8210595661
  S        11.7971600621       -2.1358818301        1.2349919299
  N        12.4209142396       -1.6545414290       -0.2442748771
  C        12.4102408340        0.4501351749       -1.5301734839
  H        12.0153711291        2.5387212584       -2.3586734571
  C         6.2684660633        7.2329664960       19.8761016245
  N         6.4123591463        8.6034568944       20.0046384736
  O         6.6200208208       10.3577729810       18.4907300650
  H        17.3165025372        7.0664225737        5.7117263466
  H        16.2056143721        7.1726767991        6.9098157268
  C        17.7421695717        5.6279461776        7.3406045451
  H         4.6493985466        5.3309236672        1.3595709737
  H         5.1497792256        5.9438123516        2.8751568754
  C         5.5780148197        7.2681403567        1.2956991967
  C        12.7739547902       -0.2823772731       -2.7348067477
  S         6.1160998166        6.3371924060       21.3145336147
  C         6.5109608862        9.3244054981       21.3580527562
  H        17.6642568226        5.9306363174        8.3425467910
  H        17.3727898997        4.6181145037        7.4275935666
  C        19.2370657185        5.8368338701        6.9239558267
  H         6.1069913145        7.3203917837        0.3435109431
  H         6.0284147462        7.9363670813        2.0326280167
  C         4.1293448158        7.9207009180        0.9983638120
  H        12.5675025977       -1.3013348084       -2.8053545821
  C        13.3460526223        0.1453536495       -3.9086956812
  H         5.9028203590        8.8168480584       22.1180093007
  H         6.1007595173       10.3520677410       21.1705675736
  C         7.8995622667        9.4903155655       21.7723405052
  H        19.8224490069        5.3520346300        7.7736611243
  H        19.4127195405        6.8951386460        6.9037664553
  C        19.6806595353        5.2562140215        5.6147492235
  H         3.7413011292        7.3450407580        0.2190541416
  H         3.3904456856        7.6522809327        1.7982733491
  C         4.2408369777        9.3955044488        0.5888804585
  S        13.7920309346        1.7879264352       -4.2270234043
  C        13.6808978671       -0.8083493805       -5.0116239234
  H         7.8631902632       10.1696930235       22.5543650712
  H         8.4707845792        9.9325018953       20.9863567551
  H         8.4756225743        8.7092175271       22.2866507790
  H        20.6727132501        5.5132467079        5.2318545764
  H        19.6450158545        4.1683756492        5.4965325030
  H        19.0911037078        5.5259601464        4.7572511418
  H         3.9911779692        9.3816295873       -0.4487417169
  H         3.3808745838        9.9344546955        1.1442087222
  H         5.1678356841        9.9107510561        0.8314407383
  C        14.1592198714        1.1892691885       -5.8332284847
  N        14.1789334771       -0.1337299767       -6.0436250838
  O        13.3468188405       -1.9899921806       -4.9789189174
  S        14.6825929409        2.2289866994       -7.1777816329
  C        14.2583735095       -0.7899610463       -7.3135658005
  H        14.5013003897       -1.8334257704       -7.2220619087
  H        15.1729002015       -0.4509845405       -7.8996373749
  C        12.9474932824       -0.8624839462       -8.1149024915
  H        12.7150460813        0.0772993601       -8.5979027818
  H        12.1902559842       -1.0691315302       -7.3536100891
  H        12.9045442845       -1.6019859846       -8.9333009300
