352
 i =   108600, time =    54300.000, E =        98.7438205856
  H        10.6045480495        4.2063733006       32.0777055977
  C        10.4213447342        5.2110822605       32.3632215920
  H         9.3927258288        5.4896518143       32.2313821705
  C        11.3435140148        6.0620649008       31.4580567921
  C        10.8744533981        5.2740129738       33.8210558664
  C        10.7725129204        6.3747506810       30.0613650048
  H        11.5965127086        7.0061969900       31.9421231314
  H        12.2829586371        5.5862224145       31.3782481030
  H        11.5252459531        4.4402119128       33.8897892655
  H        11.4895976782        6.1738039809       33.9550743544
  H        10.0555289861        5.2928794485       34.5389200292
  C        10.6422508137        5.1163877841       29.2210095412
  H        11.6154738175        6.8881352642       29.5789826379
  H         9.9517780630        7.0497424425       30.0321148570
  C        10.8338619963        5.4425740893       27.7566338892
  H        11.3907561670        4.4576903792       29.4760132915
  H         9.5394866232        4.7804490011       29.4418943241
  C         9.7116676780        4.9843997953       26.8051857124
  H        11.7356110097        4.9813656585       27.3784473331
  H        10.9680171998        6.4653837696       27.6717768050
  C         8.6428741241        6.0474738856       26.5578614251
  H        10.1562125772        4.6652751463       25.8775641302
  H         9.3054114728        4.0300379122       27.2946095662
  C         7.4759521011        5.3916754538       25.7467908762
  H         8.2203828734        6.4534724085       27.5147136096
  H         9.0516515234        6.9155110467       26.0593502650
  C         7.1078957488        4.0360593352       26.2803161129
  C         7.9006972045        4.8204360048       24.4303985270
  C         6.2169402490        6.2789944591       25.6170782497
  C         7.2202670382        3.0059209653       25.4076065145
  C         6.6752536460        3.6002253690       27.5527880720
  C         7.8102330062        3.4583776217       24.2239718200
  C         8.5149390910        5.4738843400       23.3029615335
  H         6.4791775868        7.0918752827       24.9685763926
  H         6.0057488067        6.8323197771       26.5548822859
  C         4.9497687496        5.5925581340       25.0641217463
  S         6.7547617165        1.4880140578       26.0651532294
  C         6.4265949771        2.2235471523       27.6306384728
  H         6.5153970149        4.3184631796       28.3488656695
  C         8.2033833784        2.8991240466       23.0604271653
  H         8.4807736640        6.5775686748       23.2864402352
  C         8.8699805064        4.8344600206       22.1606016658
  H         5.1216195736        5.2401054988       24.0584871872
  H         4.7586076373        4.6042146856       25.6009805964
  C         3.6688473336        6.4330148642       25.1741299139
  C         5.9795712881        1.5382360839       28.8708129596
  C         8.7353922507        3.5406604293       21.9613616824
  H         8.0970243879        1.8852265029       23.0598331880
  C         9.2425123997        5.2667961642       20.8750484890
  H         2.7711868984        6.0671798630       24.5813760217
  H         3.7571811588        7.3920068881       24.7713373450
  C         3.2022469777        6.5065251111       26.6670433633
  C         5.8722732002        0.1290617053       28.9991568107
  C         5.5437176103        2.2883170126       30.1288510397
  C         9.1007957232        2.8284310654       20.7285957083
  C         9.4535391418        4.1474804991       20.0301420466
  S         9.3901982554        6.8110988023       20.0638020690
  H         2.3808767643        7.1834704274       26.7447646715
  H         4.1009290746        6.9213363570       27.0955700555
  C         2.7917809363        5.1627987875       27.1804117065
  N         6.4215066706       -0.8027175575       28.0732257555
  C         5.6260999762       -0.5159337979       30.2331115842
  C         5.1983889924        1.6316334944       31.3164143833
  H         5.3587051428        3.3946680054       30.0372268403
  C         7.9363670618        2.0802098038       20.0516331063
  C        10.2382070923        1.8367372352       20.9346008566
  C         9.8232294499        4.5836122553       18.7373520893
  C         9.7672641906        5.9636495478       18.6574136653
  H         2.4665467355        4.4682680100       26.4189383997
  H         3.6074654841        4.6917948513       27.7046357629
  C         1.6610886076        5.3428776541       28.2354002550
  S         6.1472932295       -2.3324298886       28.5964854994
  N         5.7774092200       -1.9286634507       30.1521358765
  C         5.2817603716        0.1666902866       31.3931442597
  H         4.7880778777        2.2440923160       32.0835417948
  H         7.5524700476        1.3581042058       20.6838836834
  H         8.1892818332        1.5733617189       19.0783877129
  C         6.7107143254        2.9416413405       19.7585270261
  H        10.5652756096        1.3636342785       20.0138938826
  H         9.7061235643        1.1096934554       21.5268192767
  C        11.5342261816        2.4182377092       21.5829730592
  H         9.8872738354        3.8434485905       17.9471279850
  C         9.9886812346        6.7225559052       17.3422400155
  H         1.3551845523        4.3396094755       28.5231556523
  H         0.7126928970        5.6751948764       27.7522218100
  C         2.1176820692        6.0806515026       29.4480829479
  C         5.0215652166       -0.4869538685       32.6389977925
  H         7.0944924504        3.6731510239       19.0735908452
  H         6.3743428234        3.4925766333       20.6658862376
  C         5.6629289201        1.9737238950       19.1435487918
  H        11.3357322450        3.0964687254       22.4004578347
  H        11.9934656872        3.1000260695       20.8921397039
  C        12.5337273127        1.3179207556       22.0035879665
  C        10.0318918435        8.1329514008       17.1923575480
  C        10.3848639711        5.9812408008       16.0864815162
  H         2.3372669218        7.0296504219       29.1001629538
  H         1.3385965587        6.0893439912       30.2063797310
  C         3.4137757941        5.4953534602       30.0731828822
  H         5.1237490230       -1.5821623859       32.6387856087
  C         4.7569355898       -0.0302959763       33.9206681143
  H         5.2774510997        1.2239849587       19.8170755798
  H         6.1651069944        1.3388744874       18.3692503590
  C         4.4765719833        2.7295655587       18.4840702134
  H        12.0659474273        0.6039901513       22.6170577141
  H        12.8528077412        0.8038230497       21.0691626416
  C        13.7325190509        1.8414621668       22.8288071991
  N         9.7170315053        9.0433243498       18.1375021773
  C        10.3295458654        8.7431913376       15.9873651859
  C        10.5841709463        6.5670154067       14.8593289559
  H        10.4180671329        4.9589746731       16.1271069966
  H         3.3983325729        5.6851206959       31.1483828766
  H         3.5434354029        4.4135038922       29.9269251542
  H         4.3691840488        5.9755137795       29.7644751937
  S         4.5672166437        1.6141772344       34.4054013541
  C         4.6182143959       -1.0389665333       35.0382122976
  H         4.1484948495        3.6282812941       19.0099461521
  H         4.7691857971        3.0454240930       17.4508751496
  C         3.2714999191        1.7818888341       18.3355479426
  H        14.0569588860        1.0580933807       23.4558092194
  H        13.5031765721        2.6435592596       23.5805630864
  C        15.0195945646        2.0183042144       22.0626258653
  S         9.6868534395       10.5092458704       17.5399212043
  N        10.2404734764       10.0963706870       16.0614635595
  C        10.6854834224        8.0342459081       14.8194065921
  H        10.7594427893        5.9517010322       13.9785435084
  C         4.0563423300        0.9201074859       35.9517029091
  N         4.0857022667       -0.4582539449       36.0859066982
  O         4.8263572899       -2.2627757956       34.8348544272
  H         2.4005419097        2.2451696523       17.9725983903
  H         2.9885380590        1.3198260926       19.3158075142
  C         3.5545091309        0.5165217155       17.5980772084
  H        15.5827571938        1.0464865218       22.0431852660
  H        14.8474866981        2.1474862520       21.0185239142
  C        15.8309411456        3.1055849893       22.7299145816
  C        10.9986856667        8.7102567535       13.5880316035
  S         3.4033998947        1.8920056339       37.2466413258
  C         4.1133307076       -1.1989861455       37.3193926393
  H         4.4351349042        0.6881916437       16.9653239179
  H         3.8953441891       -0.1671162085       18.3337081939
  C         2.4466545495       -0.2015377059       16.8480893295
  H        15.6614475346        2.9971157978       23.8070781500
  H        15.3977893683        4.0499442118       22.4257420345
  C        17.3276986880        2.9327128551       22.4267708731
  H        10.6052638591        9.7040627982       13.5472356983
  C        11.5365001401        8.2802803640       12.3942039397
  H         3.3825913189       -0.8598771791       38.0684808522
  H         3.7724192573       -2.2204852204       37.1022077178
  C         5.5307645110       -1.0987801338       37.9037204858
  H         2.1976486561        0.3407291072       15.9276909596
  H         1.5329601383        0.1609701709       17.3396620280
  C         2.6318390966       -1.6866579744       16.8087861059
  H        17.5082844942        2.6424409855       21.3977046891
  H        17.7827257143        3.9352806008       22.5132640388
  C        17.9622000864        1.9481947383       23.3913483406
  S        12.2004181441        6.7358474307       12.0040623682
  C        11.5689550870        9.2394489293       11.2783928404
  H         5.6599095070       -1.8992894454       38.6296352517
  H         6.3113503818       -1.2717951452       37.1308913794
  H         5.7621780961       -0.1958327902       38.4615117517
  H         2.3375390705       -2.1550413447       17.7550035250
  H         3.7028025249       -1.8310309643       16.6675868640
  H         2.0698651763       -2.0913524665       15.9468773606
  H        18.9716815603        1.7640436711       22.9754249061
  H        17.4706502697        0.9866990533       23.4460978608
  H        17.9459949303        2.3371850632       24.4267947917
  C        12.3297924362        7.3308750583       10.4313242761
  N        12.0702250986        8.6196453500       10.2053855057
  O        11.2195879218       10.4117438663       11.2906995730
  S        12.6784315131        6.2199313041        9.0972106736
  C        12.1945442492        9.2937846850        8.9968290263
  H        12.4636720254       10.3513341707        9.2778319315
  H        13.0406442966        8.8800697299        8.4579993182
  C        10.9342302198        9.3150396165        8.1594118816
  H        10.5702182227        8.3242968876        7.9415992159
  H        10.1222278964       10.0006767059        8.5986003175
  H        11.1775281301        9.7474599208        7.2045223198
  H         2.6334078453        3.6281658849       12.5674784286
  C         3.2915231811        2.8366962238       12.8457195081
  H         2.6229430877        2.0048313234       12.7071034135
  C         4.3619725019        2.8672040518       11.7103105091
  C         3.8001023936        2.8553490431       14.2771364261
  C         3.7409293728        2.3934514599       10.3392860074
  H         5.1946586768        2.3120599015       11.9946862089
  H         4.7079205392        3.9025955534       11.6317082384
  H         4.5194690817        3.6415200905       14.3972102907
  H         4.2895219252        1.9695915689       14.5540666809
  H         3.0089976210        3.0347385352       14.9938361582
  C         4.4942701247        1.1702238892        9.7851477142
  H         2.6817496673        2.1042198109       10.4359507847
  H         3.8117890734        3.2746193745        9.6715361457
  C         5.3918697261        1.4571442990        8.4870248643
  H         3.8047580882        0.4402262584        9.4719676603
  H         5.0846973165        0.7107678777       10.5746140319
  C         6.4401367065        2.5022402377        8.6789079693
  H         4.8027215813        1.9288501436        7.7672947000
  H         5.8221385890        0.5635609991        8.0306045408
  C         7.8603200835        1.9142911812        8.8970233247
  H         6.5239833252        3.1081739190        7.7148472408
  H         6.2149920126        3.1186565863        9.4727392732
  C         9.1453789949        2.8184173287        9.1515165436
  H         8.0494869334        1.3281188986        8.0447793814
  H         7.8207667437        1.2816691945        9.7577639650
  C         8.8025216929        4.1624015239        9.8374190830
  C         9.6409233531        3.5371442401        7.9125523576
  C        10.2368936124        2.0642834771        9.9613686400
  C         9.0228743730        5.2527298951        9.0558607281
  C         8.3239690006        4.5557653793       11.0975333759
  C         9.5565267323        4.8668365452        7.7946082252
  C        10.1694387561        2.8999495789        6.8194125735
  H         9.7179286807        1.5659139614       10.8631452943
  H        10.5580406426        1.2311272149        9.3565141827
  C        11.4302016738        2.8258372073       10.2895565197
  S         8.8445014409        6.7576265164        9.8973735222
  C         8.2161673575        5.9119364867       11.2209607885
  H         7.9997804117        3.8425331885       11.7769180210
  C         9.9644829123        5.5391416431        6.6305700075
  H        10.2200664262        1.8480359139        6.9783240173
  C        10.5669824456        3.5761434359        5.6325490867
  H        11.0998978276        3.7930564836       10.6534329973
  H        11.9950974964        3.1325417898        9.4560652501
  C        12.3820805084        2.4040493675       11.3750726674
  C         7.7641184106        6.6788062667       12.4824973088
  C        10.4974066117        4.9283623927        5.5071587280
  H         9.8042278772        6.5547689432        6.4861311025
  C        11.0798547109        3.2024038551        4.3929392750
  H        13.2689290140        3.0260953313       11.2685649709
  H        12.7143007208        1.4108802329       11.1354823086
  C        11.6920362721        2.5332539354       12.7778559703
  C         7.8167928737        8.0719630623       12.6666605150
  C         7.1840044145        5.9048197362       13.5410829304
  C        10.9228060438        5.6516294741        4.2205491251
  C        11.1283661869        4.2780700963        3.5470387671
  S        11.2125405717        1.6919818048        3.6347215580
  H        11.2061417922        3.4952058227       13.0132509537
  H        11.0277218011        1.7647018392       12.8948243149
  C        12.6817129002        2.4183795343       13.8659707271
  N         8.0251840639        9.0097636886       11.6280378862
  C         7.3880129577        8.7182176984       13.7974490166
  C         6.7630409462        6.5320023424       14.6955028735
  H         7.0130215997        4.8355700378       13.4462026471
  C        12.1882254726        6.5165451798        4.4563141484
  C         9.8419235440        6.4307246453        3.5224472120
  C        11.3909365422        3.9461706925        2.1902344448
  C        11.4801968481        2.5977846916        2.0875660296
  H        13.3629166434        3.2438378009       13.7480714501
  H        13.3047123846        1.4926274888       13.7325367472
  C        12.0582016656        2.4402810406       15.2849754222
  S         7.8960897960       10.5165901797       12.2722201488
  N         7.4153749129       10.0776987304       13.7366093986
  C         6.9398188427        7.9644033042       14.8921842880
  H         6.5836026513        5.9288697670       15.5266791648
  H        11.8459936117        7.1919722668        5.2800048322
  H        12.5159929688        7.1163547895        3.5979620365
  C        13.4841905865        5.7189407743        4.9008889772
  H         9.8070677102        7.4033673465        4.0068729797
  H        10.3067953935        6.6354675389        2.5600961211
  C         8.5926964301        5.6651988819        3.2315127680
  H        11.5076669471        4.6921538731        1.4147588364
  C        11.6934080019        1.9012462245        0.7948356136
  H        11.4951639723        3.3702674052       15.4799290496
  H        11.3134794457        1.6579198299       15.3957767594
  C        13.2590046049        2.5403448858       16.3102716679
  C         6.5934840088        8.6819432865       16.0778761035
  H        13.2669101002        5.0870105795        5.7448216641
  H        13.6845461123        5.0602434496        4.0497120910
  C        14.5793901205        6.6118598755        5.1735064158
  H         8.2061339749        5.0294756065        4.0170799436
  H         8.7607715776        4.9999976744        2.3889599028
  C         7.5630220150        6.6594449444        2.7598929759
  C        11.7141113055        0.5333809783        0.6125722009
  C        11.9063030135        2.6868476487       -0.4578912371
  H        13.9388298540        3.2182098405       15.8972691148
  H        13.5760156773        1.5248964563       16.4017499557
  C        12.7827737661        2.7213478107       17.7657777321
  H         6.4662299943        9.7455124755       16.0196584824
  C         6.4061356195        8.1443127671       17.3449481416
  H        14.2892204062        7.1603623733        6.0324804603
  H        14.6729225089        7.2692114568        4.3745431505
  C        15.8727417167        6.0173887018        5.3730863233
  H         7.2638273942        7.1850020473        3.6455783595
  H         7.9073423624        7.3005985615        1.9925045768
  C         6.3671438767        5.8132631322        2.2916329638
  N        11.7533531950       -0.3566871934        1.6773098664
  C        12.0645764654       -0.1275528641       -0.5576435264
  C        12.2194900290        2.0128219547       -1.6655735447
  H        11.9222192808        3.7444419061       -0.4784779842
  H        13.5400328671        2.3025796489       18.4513869383
  H        11.8147427597        2.2896143025       17.9828818748
  H        12.7601312504        3.7698824754       18.0117113357
  S         6.3198629290        6.5239844256       17.8957170933
  C         6.2927979183        9.1508836986       18.4478851873
  H        15.8962500907        5.2157677002        4.6470474322
  H        16.5727170051        6.8128930658        5.0670790800
  C        16.0389928119        5.5186324849        6.7630895427
  H         6.0423284666        4.9813142227        2.9542098396
  H         6.6048841688        5.2653908964        1.3663323699
  C         5.0470667125        6.5855325368        2.0073772805
  S        11.4842656428       -1.8534776279        1.0535134680
  N        11.9808020914       -1.4981772384       -0.5036455152
  C        12.3117188345        0.5329959186       -1.7525557952
  H        12.4051447643        2.6539668219       -2.5180845004
  C         5.9603042714        7.1996807657       19.5113583303
  N         5.9771766677        8.5342393015       19.6132011913
  O         6.2271266573       10.3611627424       18.2151511790
  H        15.7712440528        6.2203787847        7.4928458809
  H        15.3474579504        4.7027300904        6.9021096698
  C        17.4326874722        4.9114388843        7.0921614688
  H         4.3291018275        5.9857694570        1.5162345427
  H         4.6291234294        7.0111291514        2.9404824038
  C         5.2907965574        7.7133394900        1.0034122261
  C        12.5839717600       -0.2138376995       -2.9345966719
  S         5.7508200773        6.4018911072       21.0583905746
  C         6.0599684482        9.2902242232       20.8479867390
  H        17.3407202940        4.3162563001        7.9645248994
  H        17.7691553171        4.4554179948        6.1840064454
  C        18.5198584603        5.9392639188        7.5557392320
  H         5.6377801402        7.2250300158        0.0589522827
  H         6.1810380035        8.3318104867        1.2732063903
  C         4.1177810831        8.6582589751        0.7306070061
  H        12.2263103455       -1.2299160586       -2.9629574805
  C        13.2585011378        0.1216457289       -4.0830888575
  H         5.3036727825        8.9969049463       21.5209076579
  H         5.7071233478       10.2913381413       20.7227450748
  C         7.4672415794        9.3597184298       21.4241558871
  H        18.9514659396        5.7696256625        8.5942027187
  H        18.1508628612        6.9610582276        7.7810290451
  C        19.7600632343        6.0433757883        6.6290025786
  H         3.8621184134        8.7445184442       -0.2960534480
  H         3.2311158697        8.2837985383        1.3063065164
  C         4.4451297505       10.0203736483        1.1713044106
  S        14.0146699576        1.6189927328       -4.3582990859
  C        13.2969162140       -0.8711206295       -5.1938848330
  H         7.8621950946        8.3997877382       21.7068115412
  H         7.4715038511        9.9105089864       22.3585672785
  H         8.1227856435        9.7854247688       20.6124073987
  H        19.5220710878        6.4105518655        5.6566412280
  H        20.5801978802        6.6183450596        7.0794154841
  H        20.1032623599        5.0241290966        6.5481594056
  H         5.2439905918       10.4168089698        0.6816246941
  H         3.5737729839       10.6704144433        1.0817294672
  H         4.5922923641       10.0444394369        2.2279142447
  C        14.1134276911        0.9980102036       -6.0792810343
  N        13.8102613575       -0.2818121140       -6.2742342502
  O        12.9100602204       -2.0057134663       -5.0357145481
  S        14.6325851520        2.0364967731       -7.4440104538
  C        13.8587895716       -1.0392319777       -7.4824194989
  H        13.9001301474       -2.1700179205       -7.2320108844
  H        14.7866111002       -0.9370535172       -7.9669995338
  C        12.7352786420       -0.9482963222       -8.4328566639
  H        11.9097287779       -1.5964432508       -8.2840589769
  H        13.1793886162       -1.1509143021       -9.4232752762
  H        12.4639166080        0.1255666099       -8.3971789744
