352
 i =    75200, time =    37600.000, E =        98.2251807899
  H        12.1625194424        6.7513651277       32.4464011715
  C        11.6231999021        5.8251766996       32.4404766928
  H        12.4180370775        5.1187110706       32.2440050302
  C        10.5399423093        5.7373824025       31.3210809737
  C        11.0530519240        5.5283963317       33.8433717578
  C        11.1020943547        6.1292239410       29.9365380397
  H        10.3636167956        4.6815113888       31.1434893305
  H         9.5673387908        6.2493527911       31.5921333824
  H        10.1414354906        6.0838171107       34.0319055971
  H        10.8270319351        4.5037327922       33.9114868785
  H        11.8607522560        5.9988077846       34.4637049023
  C        10.0514852336        6.2301999095       28.7944091397
  H        11.9840396847        5.5045909250       29.6978291221
  H        11.4764767972        7.0676456470       30.1719418484
  C        10.7271326507        5.7843216025       27.4526456603
  H         9.3306903255        5.5408139301       29.0662514046
  H         9.5587168591        7.2299028953       28.6910136291
  C         9.7324210507        5.1755137749       26.4208684661
  H        11.3427549310        4.9159655676       27.6877893289
  H        11.3596850164        6.5227061574       27.0160847183
  C         8.5945649925        6.0028134987       25.9766862534
  H        10.2583488980        4.9940585034       25.5513466861
  H         9.4272523303        4.2275513895       26.8141827461
  C         7.4347373647        5.1984147792       25.2987913997
  H         8.1094862795        6.5581740632       26.7790612820
  H         8.8031486726        6.7816492432       25.2626532710
  C         7.0691656865        3.8108415189       25.9375539165
  C         7.9792797683        4.5433543888       24.0434481759
  C         6.2231328026        6.1827734456       25.1857154830
  C         7.2555805250        2.7484456473       25.0945746210
  C         6.5279207683        3.4146447439       27.1547844621
  C         7.9085691347        3.1911444605       23.9332227701
  C         8.5762517371        5.1340112702       22.9337436846
  H         6.5626742873        6.9753851586       24.4942831183
  H         5.9873089305        6.6428985421       26.1443028061
  C         5.0018910450        5.4937280860       24.6269971587
  S         6.9174629815        1.2296873318       25.7540287065
  C         6.4415313185        2.0077063683       27.2045594599
  H         6.3208040792        4.1038577282       27.9536728065
  C         8.2512841173        2.5433740344       22.7336450049
  H         8.7471229088        6.1924249603       22.9683766025
  C         8.9538985530        4.4596852673       21.7456199572
  H         5.1802986333        5.2422317624       23.5920381279
  H         4.7532378997        4.5575233676       25.1615234427
  C         3.6656939053        6.3427261984       24.6040643746
  C         6.2454119034        1.3350171912       28.4991602282
  C         8.7606496793        3.1097446461       21.5723862798
  H         8.2118425679        1.4487315162       22.7149034921
  C         9.3774718172        4.8410535891       20.4803093848
  H         2.9761472439        6.0383323190       23.9239041005
  H         4.0157408065        7.2796722567       24.1417461770
  C         3.0557427080        6.6385734432       25.9428381586
  C         6.3316280931       -0.0537051896       28.7624786451
  C         5.8311112021        2.1713316432       29.6357524988
  C         9.0534185062        2.4041536297       20.2633298132
  C         9.3853961109        3.7641608931       19.6128611856
  S         9.6922264109        6.3188516299       19.7799079916
  H         2.2171082294        7.2212269804       25.7954956784
  H         3.8053027910        7.1574005907       26.5779642596
  C         2.5716091379        5.3587275684       26.5291098655
  N         6.6537768719       -0.9490195320       27.7854293397
  C         6.1057250221       -0.5866827742       30.0159004193
  C         5.6316822985        1.6248701802       30.8849407162
  H         5.7898607434        3.2749900496       29.5373997146
  C         7.8753942089        1.5903407285       19.7047517028
  C        10.3534712321        1.5581541961       20.2284242025
  C         9.6836165880        4.1382066988       18.3086254146
  C         9.8332159551        5.5300167890       18.2408153211
  H         1.7586815321        4.9510846352       25.9791833850
  H         3.3198503604        4.5796355436       26.5537173481
  C         1.9793415966        5.6624933996       27.9839986729
  S         6.5116362090       -2.4227559512       28.4100639080
  N         6.2645598818       -1.9776682758       29.9525093063
  C         5.7075536224        0.1655238481       31.1184834852
  H         5.3542868027        2.3487871515       31.6486931594
  H         7.5694013969        0.6893340323       20.2726192542
  H         8.1663268037        1.1488225742       18.7680919500
  C         6.7432868808        2.5041733727       19.4613455603
  H        10.5994149947        1.3492957024       19.1972971423
  H        10.1212026973        0.5861795288       20.6723325527
  C        11.6123076109        2.2001876779       20.8975956374
  H         9.6002180183        3.3338643129       17.4961495918
  C        10.0879408811        6.3592737353       17.0088326810
  H         1.3444968437        4.9011068836       28.2886252762
  H         1.3078079753        6.4692233703       27.9158916689
  C         3.1069706871        5.8424602800       29.0036203614
  C         5.6076524143       -0.4344344248       32.4107837418
  H         6.9595507722        3.1931139456       18.6765434772
  H         6.4567333931        3.0420274047       20.4034375024
  C         5.5487735011        1.6525098843       19.1775415739
  H        11.4644229311        2.1377032853       21.9910933490
  H        11.7948820087        3.2814413864       20.7914996046
  C        12.8933275622        1.3983868295       20.6270681999
  C        10.2026803364        7.7983634690       16.9410913923
  C        10.4099207175        5.5834729564       15.7785834924
  H         3.7351054672        4.9353277385       29.0818682580
  H         3.8398388025        6.6213598474       28.7972909954
  C         2.6528314730        6.2332062604       30.4207648341
  H         5.6326713727       -1.4913175525       32.3561837444
  C         5.1826824148        0.0035333327       33.6495421154
  H         5.1321693245        1.3897801250       20.1487088524
  H         5.8849287241        0.7564337141       18.6005048250
  C         4.5399482690        2.2753954214       18.1916141942
  H        12.6782609025        0.3293736603       20.9753877553
  H        13.0448222556        1.2959317514       19.6239774141
  C        14.1426696276        1.9741019410       21.1967151579
  N         9.9465094713        8.6969070135       17.9495989597
  C        10.5493136785        8.4269984033       15.7515564249
  C        10.7261782128        6.2578347805       14.6218316102
  H        10.5035933064        4.4937091431       15.8813361678
  H         2.0364773492        7.0832552522       30.5000442559
  H         2.0614552801        5.4135068151       30.8380793846
  H         3.5935386606        6.3565540800       30.9016798073
  S         4.7760152560        1.5975384242       34.0999857115
  C         5.0934476212       -1.0034001555       34.7392027830
  H         4.2512072550        3.2037454446       18.5869625972
  H         4.9333583179        2.4185295257       17.1981652914
  C         3.1685615628        1.5358723208       18.1726535803
  H        14.3929822599        2.9572316328       20.7532706961
  H        14.9167425941        1.3086356956       20.8007283916
  C        14.2875720218        1.9583993364       22.7352168209
  S        10.3251163068       10.1816634338       17.4362257849
  N        10.3825550111        9.8165318167       15.8375230511
  C        10.7623688516        7.7397041116       14.5318379950
  H        10.8859752237        5.6779461282       13.7235366706
  C         4.6472093335        0.9773223452       35.7084612151
  N         4.8184546584       -0.3597719468       35.8958113934
  O         5.4281148505       -2.2128346410       34.6480895042
  H         2.3329264348        2.1943824348       17.9318518391
  H         2.8454506137        1.2174810984       19.1754174731
  C         3.2755079509        0.4153935413       17.1445318088
  H        13.2999181786        1.9343083798       23.1939126504
  H        14.7858923522        1.0165542215       23.0895956340
  C        15.3514789885        3.0639562141       23.2147046392
  C        11.0709863038        8.5908201372       13.4729001544
  S         4.2664987196        1.9891437579       37.1255595323
  C         4.8554729074       -0.9612045172       37.2174250143
  H         3.3386960746        0.8652825504       16.2031645202
  H         4.1785685127       -0.0973271162       17.3999769086
  C         2.1659252561       -0.5733143287       17.1739955190
  H        15.5512400978        3.1768974830       24.2686337617
  H        14.9069504625        4.0025057349       22.9624961965
  C        16.7518446822        2.8884255698       22.6284698836
  H        10.7559855709        9.5720086576       13.5396191410
  C        11.6003252715        8.3123496560       12.1916044499
  H         3.9988850426       -0.5567475563       37.8571858142
  H         4.5076011050       -1.9558111518       37.0734236068
  C         6.2116563052       -1.0755634221       37.9725249009
  H         1.9157354630       -0.8705397266       16.1532866226
  H         1.2643249017       -0.2448702751       17.6454783154
  C         2.4432944457       -1.9032537933       17.8361072758
  H        16.8023146213        2.4884812511       21.6156473479
  H        17.2423341549        3.8894617184       22.5149441388
  C        17.7001016707        2.0290155819       23.3602153410
  S        12.0568808731        6.7794000591       11.5631840561
  C        11.8103375018        9.4509383526       11.2264398440
  H         6.2013517090       -1.9970292401       38.6576121656
  H         7.0451823172       -1.1543454339       37.2695046087
  H         6.4924510858       -0.2344618244       38.6406512259
  H         2.8923270671       -2.6078444934       17.0794138091
  H         1.4436694132       -2.2511087368       18.1666248938
  H         3.0227329709       -1.9192875385       18.8121892216
  H        18.6805078146        2.2794183402       22.9163025371
  H        17.3144218957        1.0013224435       23.2893334357
  H        17.7790761411        2.3329506314       24.4306799663
  C        12.4447768414        7.6154048933       10.0440319834
  N        12.2817247064        8.9645950152       10.0958519750
  O        11.5155916705       10.5734085235       11.4291005865
  S        12.7970746863        6.8477881223        8.4825503499
  C        12.3855513864        9.8054198990        8.9144706345
  H        12.5742868225       10.8400697815        9.1608669925
  H        13.1959513206        9.4733889639        8.2902556070
  C        11.0914498275        9.8291769448        8.1658878479
  H        10.2686925101        9.9177374030        8.9007688598
  H        11.0678200031       10.7137962278        7.5120238383
  H        10.9647705670        9.0363305814        7.4599206620
  H         2.2109030798        2.3921792073       13.5987948313
  C         3.2142772055        2.3949893265       13.1551563964
  H         3.4101579894        1.3479438968       13.0308210213
  C         3.2723711147        3.1563185918       11.8201577280
  C         4.0637333379        3.0440058438       14.1829113217
  C         4.5562602033        3.1480537724       11.0034449338
  H         2.9609833447        4.1891147725       12.0131240575
  H         2.4537623011        2.8476461503       11.0928918817
  H         4.2967812531        2.3480566980       14.9738336880
  H         3.3881043209        3.7654233332       14.6563657877
  H         4.9635990600        3.5121362929       13.8175042811
  C         4.9445928791        1.7486360631       10.5157782374
  H         4.2844381950        3.8577793901       10.1398865286
  H         5.3455918225        3.7116408989       11.5170438216
  C         5.3870038576        1.8546425369        9.0102901329
  H         4.1101045188        1.1443604681       10.5674293260
  H         5.7323541013        1.2540329564       11.0534846675
  C         6.6511558198        2.6888444402        8.5643263637
  H         4.4720570879        2.1871516884        8.4408539921
  H         5.5830371727        0.8508394134        8.5760070522
  C         7.9676717766        2.0337374050        9.0405139414
  H         6.6567838085        2.7053048189        7.4672948145
  H         6.5656389506        3.7277175928        8.8443460188
  C         9.2185230294        2.9686429837        9.1107290147
  H         8.0195858959        1.1037650344        8.4611685099
  H         7.6525645669        1.7555343506       10.0635977818
  C         8.9904790913        4.3084218362        9.7504207443
  C         9.6986252622        3.5928378576        7.8621807810
  C        10.4347374778        2.2416003163        9.8058821972
  C         9.3369956193        5.4063132665        8.9699654109
  C         8.4362641740        4.7270127867       10.9570998254
  C         9.7432536822        4.9520257216        7.7478096711
  C        10.1313690563        2.9688066525        6.7195643932
  H        10.0403374077        1.7233189359       10.6919568909
  H        10.7637360687        1.4807590154        9.1785934699
  C        11.6798522405        3.1656522044       10.0635490435
  S         9.0836251790        6.9085353457        9.7412384738
  C         8.3854654904        6.1055381152       11.0916385308
  H         8.2859934682        3.9298291327       11.7190133312
  C        10.0484429171        5.5535622534        6.5699809944
  H        10.0928354064        1.8850625718        6.7526391442
  C        10.5506645075        3.5730011911        5.5594484910
  H        11.4982889417        4.0800069065       10.5528767846
  H        12.1543378762        3.4740068868        9.1309770984
  C        12.6938025121        2.3860473940       10.8369616566
  C         7.9570024218        6.7280002570       12.4008095243
  C        10.5057725755        4.8846969166        5.4162036511
  H        10.0857640019        6.6183614784        6.6403053160
  C        10.9979158487        3.1630247189        4.3134696412
  H        13.6395448433        2.9485030789       10.6957604542
  H        12.7424320900        1.3519069087       10.5579934149
  C        12.3876639804        2.4906261928       12.3426272605
  C         7.8636349112        8.0778598728       12.6877965452
  C         7.5106429390        5.7967177016       13.4692200668
  C        10.9955196879        5.5701579270        4.1795292555
  C        11.3400372861        4.2210435344        3.5180711004
  S        11.1746135925        1.6514832898        3.5518449962
  H        12.0836125171        3.5003501199       12.6320603547
  H        11.6142112347        1.7562576098       12.5727596325
  C        13.6167984593        2.2315537857       13.1660442701
  N         8.2520628587        9.0042726350       11.7647514595
  C         7.5949086456        8.6247164587       13.8943939154
  C         7.2007866013        6.3440342270       14.7169499906
  H         7.2663639090        4.7285046344       13.2970321129
  C        12.2909172261        6.4582340856        4.3624725511
  C         9.8874048243        6.1890688339        3.3868899107
  C        11.6550716141        3.8344486976        2.2459562601
  C        11.6097998524        2.4673323503        2.0729146127
  H        14.0963044675        3.1887885047       13.4376881177
  H        14.3986472600        1.6817473654       12.6087411589
  C        13.3790430067        1.4824752714       14.4703746463
  S         8.1993999593       10.5025254294       12.4983194306
  N         7.4920367863       10.0018241715       13.8777490652
  C         7.3371681892        7.8184968804       14.9974745168
  H         6.9927999188        5.6339744613       15.5344219365
  H        12.0311186576        7.3073905699        4.9747593588
  H        12.6784851108        6.9753013079        3.4148961577
  C        13.4936446603        5.6852715060        4.9571374632
  H         9.5184067010        6.9987940722        4.0430028846
  H        10.2316141670        6.6245189538        2.4472577071
  C         8.6517403253        5.3231062418        3.0755411918
  H        11.8010441620        4.5567567234        1.4113408850
  C        11.8383446480        1.7763470525        0.7447633977
  H        12.7691525901        0.5647566010       14.3190512446
  H        14.3327011043        1.3289540557       14.8976083655
  C        12.5048133616        2.2866267825       15.5189497033
  C         7.0420302876        8.4811876983       16.2672362183
  H        13.0255953687        5.2008515125        5.7946402416
  H        13.9798395542        4.9532787287        4.3667366601
  C        14.6461913149        6.5309674974        5.4805747508
  H         8.3549573269        4.9248881125        4.0431961915
  H         8.8936213478        4.5979472961        2.3566954281
  C         7.5505728869        6.2774269687        2.4778047354
  C        11.9799158537        0.3832401068        0.6534760389
  C        11.9427804889        2.4939656986       -0.5436849248
  H        11.4737484386        1.9441761262       15.4525749681
  H        12.5829575170        3.3407419382       15.1398515739
  C        12.9933340733        2.1626992651       17.0059789622
  H         7.3240230963        9.4998721892       16.2635126024
  C         6.6583937207        8.0731530362       17.4808928512
  H        14.2719911666        7.3630733268        6.0938950296
  H        15.0502611928        7.0635717820        4.5858188656
  C        15.6358665957        5.6402523457        6.2067556606
  H         7.2440764054        6.8557080075        3.3104628680
  H         8.0049544643        6.9360883615        1.7134758673
  C         6.3217789637        5.4976519652        1.9992375220
  N        11.9858909025       -0.5555236601        1.7374297374
  C        12.3296017225       -0.2846680613       -0.5753386822
  C        12.1670413284        1.8175985692       -1.7422927329
  H        11.7272696824        3.5632706883       -0.5733087071
  H        14.1355954866        2.1421324298       16.9779362375
  H        12.5893155109        1.3778687024       17.5832092517
  H        12.6087608003        3.0376426308       17.4795039441
  S         6.2702593953        6.4388938266       17.8961013722
  C         6.6189084488        9.0247313257       18.6118220909
  H        15.1723032834        4.9442025301        6.8808980517
  H        16.1630983940        5.0868427199        5.3897615983
  C        16.7050258857        6.3924505619        6.9669776251
  H         6.0452848852        4.7403503837        2.7366158391
  H         6.5311261497        4.9117771822        1.0114636835
  C         5.0717825125        6.4081793929        1.7262195643
  S        12.1438833577       -2.0727069613        1.1512603848
  N        12.4625333749       -1.6684179542       -0.4515613275
  C        12.4128282034        0.3968523250       -1.8216595263
  H        12.0572775777        2.4601209265       -2.5718268178
  C         6.3259139911        6.9847202626       19.5598306216
  N         6.3361774201        8.3240957498       19.6926576638
  O         6.9536703617       10.1960460605       18.5201908958
  H        16.8099027352        7.3891781642        6.4097844040
  H        16.2746421629        6.6930069729        7.9025892887
  C        18.0255960971        5.6404678285        7.0849968643
  H         4.7278093268        6.2103024524        0.7218492012
  H         4.2573840766        6.0647886579        2.3151911065
  C         5.1474693366        7.9056648869        1.9982418144
  C        12.8154403056       -0.2800184050       -3.0380783718
  S         5.9603486901        5.9500582175       20.9517989373
  C         6.1627761390        9.0791737556       20.9549588991
  H        18.0769989436        5.2779648752        8.1390398360
  H        17.9966819276        4.6836070285        6.5678867159
  C        19.3928973812        6.3070891143        6.7699892837
  H         5.9826402978        8.3235589916        1.3561270555
  H         5.3309481475        8.1106702580        3.0437771336
  C         3.9378852904        8.7064112411        1.4883742015
  H        12.6626208210       -1.4062272547       -3.0737862541
  C        13.3055727519        0.1035716752       -4.2333212516
  H         5.3678657244        8.6634633708       21.6074970781
  H         5.8275409155       10.1168090150       20.8010888085
  C         7.4680529387        8.9655001857       21.7256927854
  H        20.0653132258        6.2101906465        7.6101040151
  H        19.1864255215        7.4471102904        6.7271485133
  C        20.1124803858        5.7175255223        5.5925082942
  H         3.7077829791        8.2628221853        0.5095764091
  H         2.9967816471        8.3745473001        2.0773424785
  C         4.2182993807       10.2415324388        1.3766561637
  S        13.7174736132        1.6648262992       -4.7637447032
  C        13.5344955415       -0.9865113488       -5.2185244270
  H         7.2589533406        8.9281536074       22.8001903594
  H         8.0122926598        9.8457829811       21.4496471007
  H         8.0398769408        8.0411016084       21.5080232698
  H        20.8264394673        5.0136710735        6.0373638925
  H        19.4652161654        5.1959237782        4.8980206914
  H        20.7973864689        6.4519891592        5.0690527209
  H         5.0407130947       10.4748945300        0.6937275720
  H         3.3204385118       10.8062379768        1.2467866823
  H         4.7255151634       10.4757534650        2.2925718955
  C        14.2522732894        0.9054634756       -6.2370593212
  N        14.1730565532       -0.4896436159       -6.3068098901
  O        13.3159470125       -2.1848357751       -5.1043490980
  S        15.1027352284        1.7418550960       -7.5345100680
  C        14.3992041373       -1.2664234742       -7.4806068775
  H        14.3735590447       -2.2534833730       -7.1351286950
  H        15.4361497509       -1.1847910360       -7.8081307400
  C        13.2675322890       -1.3290281892       -8.4421961596
  H        12.2431478410       -1.0485428424       -8.0481446301
  H        13.1776551396       -2.3451214328       -8.6177786590
  H        13.3183979886       -0.8413560330       -9.4353567212
