352
 i =    91200, time =    45600.000, E =       100.2096134544
  H        11.6436652826        6.9593221298       32.5988618262
  C        11.4690230049        5.8974669105       32.3873291765
  H        12.3840643263        5.4603547384       31.9487497033
  C        10.4460080203        5.8826928091       31.2901130571
  C        11.0649572406        5.3683852083       33.7109609489
  C        10.9929142151        5.8131962643       29.8925505248
  H         9.8521111078        4.9380815436       31.5562161998
  H         9.7685427324        6.7510251042       31.4425780093
  H        11.9465320939        5.4063232584       34.3622505100
  H        10.2453724100        5.8516894140       34.2823661582
  H        10.6950019983        4.3479350473       33.6101712712
  C         9.9898228937        6.2531082501       28.8309170971
  H        11.4027536098        4.8423080166       29.7116312211
  H        11.8593190661        6.5343426191       29.8390967860
  C        10.5652358511        6.1531597374       27.4016977813
  H         9.1999977004        5.4947531406       28.8386092816
  H         9.6470823617        7.2740819497       28.9805783641
  C         9.4451811890        5.5767018522       26.4341809670
  H        11.4658747057        5.5246538824       27.4811326484
  H        10.8887092941        7.0692278694       27.0266396452
  C         8.2089091630        6.4401825283       26.3697215929
  H         9.8110785064        5.2081907553       25.4426445648
  H         9.1559800365        4.6364258417       26.8696830372
  C         7.0061710744        5.6631473360       25.7323329388
  H         7.8707527115        6.7975498743       27.3624416931
  H         8.4040292190        7.3973387193       25.8619367152
  C         6.6890240199        4.3306780186       26.5249406561
  C         7.3169717596        4.7948296081       24.5143478716
  C         5.7094517315        6.5559026403       25.7022730222
  C         6.9835040836        3.2017328663       25.7398940117
  C         6.1942066514        3.9918333042       27.7309056691
  C         7.3351473174        3.4398136849       24.4930449190
  C         7.7877229849        5.3441263837       23.2605429866
  H         5.9368669628        7.4240242542       25.1113975285
  H         5.5675518775        7.0129775566       26.6984611458
  C         4.4969847491        5.9076863559       25.1877331466
  S         6.7719366534        1.7564873331       26.5917011553
  C         6.2890196339        2.6668522853       27.9856402416
  H         5.7934437685        4.7556788840       28.4069185381
  C         7.6620834586        2.8121162274       23.3656718794
  H         7.9526650314        6.3818507859       23.3171292420
  C         8.1135299423        4.6713320404       22.1260219263
  H         4.6545357025        5.3963527083       24.1822778481
  H         4.3127460390        5.0078571932       25.7848922418
  C         3.2596391061        6.7792280460       25.3074105470
  C         5.8368405877        1.9919259649       29.2127551687
  C         8.0542303117        3.3390511376       22.1706045257
  H         7.6895253573        1.7298598748       23.4370354242
  C         8.5645211761        4.9659472547       20.8900185221
  H         2.5732166465        6.1150156449       24.8221999507
  H         3.4008366976        7.6634746188       24.7358704537
  C         2.6779080985        6.9210186435       26.7166124554
  C         5.9707977645        0.6436852653       29.5342984885
  C         5.5258464025        2.8617549768       30.3774143827
  C         8.4945454877        2.5648057182       21.0037502777
  C         8.7846948149        3.8071768673       20.1894072693
  S         8.9322697829        6.4207019580       20.1491668789
  H         2.0468238511        7.8407198558       26.8449479499
  H         3.4344896441        7.1283102501       27.4485914732
  C         1.9818586861        5.6694439522       27.3329333005
  N         6.2464866845       -0.4116818875       28.6005294437
  C         5.6666218074        0.1148525930       30.8012351379
  C         5.3031944995        2.3659210364       31.6476232943
  H         5.3286241366        3.9811415488       30.2881012798
  C         7.4858703381        1.6410751971       20.3949227103
  C         9.7618415032        1.8197007736       21.4059041124
  C         9.3555600659        4.0781616311       18.9292266986
  C         9.4179536806        5.4453268549       18.7128151042
  H         0.9877310527        5.5259628218       26.8843074635
  H         2.4823882773        4.7823055165       27.0001017838
  C         1.8006772633        5.7406507077       28.8739366949
  S         6.3002655494       -1.8023016010       29.3958705163
  N         5.7861908441       -1.3079133080       30.8667251330
  C         5.4700716476        0.9507236106       31.9179733298
  H         5.0163395591        3.0690795195       32.3929979759
  H         7.3637208177        0.7933293654       21.0253224990
  H         7.9494960012        1.2941442763       19.4626938134
  C         6.0509718858        2.2564287833       20.1168822302
  H        10.2723932311        1.3863500108       20.5498604400
  H         9.5947686706        1.0151377149       22.1459999111
  C        10.9242989763        2.7189890821       21.7119622376
  H         9.5187685038        3.3604039675       18.1302460907
  C         9.8750893368        6.1274106903       17.4384961866
  H         1.0655924579        4.9391021158       29.0328012909
  H         1.4303453353        6.6849372887       29.0978162309
  C         2.9648781881        5.2509968925       29.7593652198
  C         5.2412631504        0.3193294946       33.1779841216
  H         6.1611515102        3.1069996949       19.5150070306
  H         5.4189783958        2.6565443490       20.9928324592
  C         5.1978296863        1.2589940024       19.3598904766
  H        10.6066435645        3.4590163271       22.5003227052
  H        11.2468409909        3.3122119843       20.8962389147
  C        12.2026389126        1.9509864506       22.0862587012
  C         9.9601187674        7.5019268849       17.1689515146
  C        10.1443055724        5.2875830565       16.2392926251
  H         3.0508748047        4.2074335704       29.5575142985
  H         3.9153366396        5.8240999910       29.5979621893
  C         2.6262608118        5.3407510560       31.2492209342
  H         5.2945320411       -0.6965459747       33.0158658138
  C         4.8537953696        0.7039404999       34.4290632137
  H         5.1958303553        0.3962570749       20.0002372286
  H         5.6528349197        1.0473763497       18.4271526568
  C         3.6628227182        1.5966069909       19.2005836722
  H        11.8589139402        1.3048304453       22.8900386094
  H        12.5488870809        1.3435283099       21.2646861758
  C        13.2763231713        2.9367838659       22.5934319910
  N         9.7214824329        8.5015169401       18.0757475164
  C        10.2554467620        8.0677780772       15.9632081084
  C        10.4420042642        5.8839033990       14.9594143589
  H        10.0510814608        4.1943643660       16.3526755452
  H         1.7463112397        6.0116343185       31.3336800839
  H         2.4687037782        4.2868733601       31.7494345449
  H         3.4689439341        5.8005682831       31.7688083903
  S         4.4781351463        2.3423437596       34.8449184670
  C         4.6549003131       -0.3444232795       35.4099636673
  H         3.3349775942        1.1260893277       20.0924946017
  H         3.4910901804        2.6681407262       19.2033209629
  C         2.8541388834        1.0298537418       18.0279352779
  H        12.8025127476        3.8684608468       22.8379634302
  H        13.8267015378        3.2745993415       21.8157267967
  C        14.1873803832        2.2925670241       23.6370919370
  S         9.8446390749        9.9460439583       17.3757917334
  N        10.3001287098        9.4025758477       15.9597855078
  C        10.5193769459        7.3044233505       14.8147340769
  H        10.5840220648        5.1751643965       14.1897120108
  C         4.1241867905        1.5558492760       36.4609845401
  N         4.2352345447        0.2346325555       36.5338381264
  O         4.8674036640       -1.5101730980       35.1967342262
  H         3.5371846807        0.8103077771       17.2142539770
  H         2.2344186562        1.8448373265       17.5641623400
  C         1.8481129439       -0.0626875695       18.3652714187
  H        13.6229735451        2.0858075567       24.5069610659
  H        14.6250732984        1.4537465104       23.1488082194
  C        15.3120877704        3.2983245931       23.8293895167
  C        10.8668714836        7.9884868973       13.5829230244
  S         3.4473572549        2.3478697804       37.7951043761
  C         4.0052612713       -0.4160115913       37.9073375164
  H         1.6337653779        0.1903998433       19.3933351589
  H         0.9668433333       -0.1881229123       17.7899183169
  C         2.3932600013       -1.4509235702       18.3911954966
  H        15.6106463670        3.3119427313       24.8956361419
  H        14.8840218568        4.2600698911       23.6260166163
  C        16.5385463782        3.1651995470       22.9667605838
  H        10.7705917534        9.0289877607       13.5158745248
  C        11.5325643590        7.6114792862       12.4440684425
  H         3.1238302868       -0.0597252437       38.4506650727
  H         3.8128560462       -1.5125214390       37.6875118028
  C         5.2539541806       -0.3209688115       38.7231522295
  H         1.8307467041       -2.0171328207       19.0682925486
  H         3.4280640771       -1.3547671377       18.7518888177
  C         2.3791666529       -2.1873721935       17.0788748506
  H        16.3489948634        3.0416853811       21.9229893304
  H        17.1328601821        4.0746382536       22.9591427891
  C        17.4867139679        2.0730782752       23.4926836777
  S        12.1788100930        6.0905858411       12.0084138294
  C        11.7605655071        8.7307393610       11.4066584344
  H         5.7930069133        0.4995108298       38.4589074538
  H         4.8796804265       -0.0965433823       39.7537213274
  H         5.8978888736       -1.2152413330       38.6421418814
  H         1.6760827299       -3.0646443421       17.3293844776
  H         3.3773815727       -2.6255150329       16.8111128925
  H         2.1154327993       -1.6893607045       16.1859984936
  H        17.7133570415        2.3280179174       24.5073435045
  H        18.3919293521        1.9037645048       22.8753442783
  H        16.8011492545        1.2067727022       23.6453946797
  C        12.4017189699        6.7937169937       10.4144108847
  N        12.3120036216        8.1673025583       10.2923311854
  O        11.4493566519        9.9376411723       11.5397731623
  S        12.8434182512        5.8391821215        9.0328747281
  C        12.6392330936        8.8161367561        8.9935026726
  H        13.0553023812        9.8500273914        9.1834184995
  H        13.3997222897        8.3024792617        8.4459256573
  C        11.4175568286        9.0222372656        8.1868377234
  H        11.5450620053        8.4811039261        7.2693980970
  H        10.4944673511        8.6246082338        8.6313850492
  H        11.3070153075       10.0902280382        7.9792492081
  H         4.5945653608        1.8065964603       12.9312617288
  C         3.9223155200        2.6640108434       12.8729610072
  H         4.6084577516        3.5059675122       12.7953971006
  C         3.0551746626        2.5448667015       11.5928837066
  C         3.0680630441        2.6261622517       14.1456538115
  C         3.8279011179        2.7185719985       10.3497856782
  H         2.2597907187        3.2837267240       11.5821488466
  H         2.5551900655        1.5328075537       11.5129140782
  H         2.3401928654        1.8424519591       13.9922485093
  H         2.5003158253        3.5206788229       14.3361966291
  H         3.6984554904        2.4036894693       14.9426285304
  C         4.7417253927        1.4330827521        9.9998724239
  H         3.1071151501        2.9287208608        9.5067338941
  H         4.4630455337        3.6663764179       10.4491828828
  C         5.5080877853        1.5223583733        8.7223495194
  H         4.1365917616        0.4782576013        9.8740159764
  H         5.4731694424        1.4032112776       10.8064685945
  C         6.7491020819        2.3764224492        8.8621396337
  H         4.8230882744        2.0732150377        8.0684209464
  H         5.7312595005        0.5044118664        8.3730042849
  C         7.9538010107        1.6889414344        9.4636366981
  H         6.9516794938        2.6502205393        7.8320219032
  H         6.4926834671        3.3280068633        9.3316539011
  C         9.2532762341        2.5525934960        9.4283966654
  H         8.0366407172        0.7065123873        9.0037202562
  H         7.7709287368        1.4216545148       10.5545245722
  C         8.8225565753        3.8630929733       10.2035796157
  C         9.5251844152        3.2992554603        8.2138264552
  C        10.4571258022        1.6804981748        9.9874486101
  C         8.8559162667        4.9169718451        9.3386889142
  C         8.4107540906        4.2368611314       11.5063838286
  C         9.3127575800        4.6156853291        8.1033166732
  C        10.1070636834        2.7533396828        7.0710551818
  H        10.0160733088        1.2845936497       10.8784731570
  H        10.7343708669        0.9306837051        9.2877146014
  C        11.6375501540        2.6467905530       10.3208151019
  S         8.2512026444        6.3427750720       10.0144963609
  C         8.0281624368        5.5396405121       11.5228671928
  H         8.3248464312        3.5317200261       12.3235296820
  C         9.5838902825        5.2611981207        6.9476562545
  H        10.3241510130        1.7274171937        7.0811971883
  C        10.4014942116        3.4238552497        5.9498206968
  H        11.2750920584        3.6071767741       10.5931030313
  H        12.2476217718        2.7416189678        9.3619707093
  C        12.5190488174        2.0913984279       11.4330937505
  C         7.5430421575        6.2881913357       12.7491375677
  C        10.1759457356        4.7597700300        5.7900126442
  H         9.3499696477        6.3138080847        6.8596668290
  C        10.7771821727        3.0679960816        4.6466196248
  H        13.3667379124        2.7597852153       11.5478371606
  H        12.8514276185        1.1529581015       11.1230499426
  C        11.7780861388        2.1159688759       12.8102594704
  C         7.5870536007        7.6874492001       12.9624117996
  C         7.2488955636        5.4876454024       13.9274912210
  C        10.5189083513        5.4713254719        4.5112187733
  C        10.8995581449        4.1620655088        3.8013910853
  S        11.0668708092        1.5440857219        3.8353363030
  H        11.1736287238        2.9965491410       12.8882811199
  H        11.0913910937        1.2435673610       12.7394977257
  C        12.6758618035        1.6703952460       14.0125508110
  N         7.8689950813        8.5715011860       11.9661537944
  C         7.3356672338        8.2705212070       14.1913634661
  C         6.8290861632        6.1154530741       15.1039003178
  H         7.0611978714        4.4347213949       13.8544907250
  C        11.8606580887        6.2748807107        4.7478852294
  C         9.5130229102        6.2887273360        3.7204881682
  C        11.2851132171        3.7174563860        2.5121910747
  C        11.4840570008        2.3634530476        2.4113168831
  H        13.7585488422        2.0052744587       13.8764383729
  H        12.5642015190        0.5651299586       14.1650178745
  C        12.2564489872        2.3629042791       15.2689315678
  S         7.9238419929       10.0805109688       12.6129591900
  N         7.5277877864        9.6774480339       14.2025576905
  C         7.0435248164        7.5496459856       15.3262611044
  H         6.4440351108        5.4621894225       15.8683404246
  H        11.8079413708        6.9790954081        5.6176732666
  H        11.9728291524        6.9476042424        3.9386101408
  C        13.0494131804        5.3644803005        5.0101372022
  H         9.3171705781        7.1639647999        4.2711708343
  H        10.0421272354        6.5660782010        2.8007609228
  C         8.2857723936        5.5212884872        3.2433085945
  H        11.4287923715        4.4081124868        1.7255599915
  C        11.8609343403        1.6497084043        1.1293253405
  H        11.9788306181        3.3770980322       15.0238377529
  H        11.3954692178        1.8479463833       15.7177890162
  C        13.3924327397        2.3411281094       16.3233356277
  C         6.7504291021        8.1997203329       16.5225543377
  H        12.9808369483        4.6641840260        5.8747989869
  H        13.2657492539        4.8068494469        4.0613109338
  C        14.1985950389        6.2398716678        5.3490855699
  H         7.8542521184        4.8334414130        3.9702298870
  H         8.5714336484        4.7997870108        2.4527547278
  C         7.3674530644        6.5767244410        2.6363917658
  C        11.9075208034        0.1714777732        0.9855494963
  C        11.9532745134        2.4391785430       -0.1582086850
  H        14.2268063016        2.8115390417       15.9119823705
  H        13.5627539143        1.2621746949       16.5997142714
  C        12.9950563941        3.1463656723       17.5438340915
  H         6.7358232330        9.2633469850       16.4637362819
  C         6.3122198614        7.8306814133       17.8325844464
  H        14.0799057661        7.2154721265        5.9616281176
  H        14.5841651289        6.5133184538        4.3487314694
  C        15.1739143308        5.3230432871        6.0539053682
  H         6.8332173994        7.2637963389        3.3408449887
  H         7.9603958030        7.2147592660        1.9914971533
  C         6.3200891582        5.8902075975        1.7925388914
  N        11.7070208629       -0.7691609100        2.0643050772
  C        12.2361875826       -0.4805963478       -0.1904602275
  C        12.2961809297        1.7102361248       -1.3197258603
  H        11.9459402049        3.5032655316       -0.1445054921
  H        11.9649398560        3.3773609149       17.4788148497
  H        13.5479893778        4.0356925712       17.7468929623
  H        13.1514735667        2.4996609256       18.3883774320
  S         5.9787115391        6.2687500434       18.5673839155
  C         6.3266865653        8.9250099268       18.8577601643
  H        14.8500022500        5.2710147855        7.0112940353
  H        15.1360802918        4.3045639374        5.7541276399
  C        16.6961133149        5.8461710515        6.0056685544
  H         5.8892829845        5.0258041332        2.3854842977
  H         6.7315152481        5.4679764446        0.9083656525
  C         5.1026393639        6.8130003869        1.4229037535
  S        11.6504107050       -2.3249582340        1.3879672508
  N        12.1422151498       -1.9063968234       -0.0936961319
  C        12.5712751187        0.2464041463       -1.3536292288
  H        12.4951444780        2.2570997426       -2.1770993700
  C         5.6847645432        7.1466055461       20.0482555487
  N         5.9281488747        8.4427999834       20.0213332010
  O         6.6903021160       10.0892581476       18.6324714629
  H        17.1620581459        5.4412501563        5.0866199937
  H        16.8232045696        6.8916555634        5.9078454685
  C        17.4696283732        5.2727851582        7.1808996038
  H         4.3497358385        6.0826771020        1.0700498086
  H         4.6954984468        7.3215769577        2.3149607808
  C         5.4473749511        7.9184640849        0.3835901872
  C        12.8822504958       -0.4959325128       -2.4767818209
  S         5.2161793434        6.4812845028       21.5716551540
  C         5.9584190690        9.3192087104       21.1823717332
  H        17.0373743758        5.6215433107        8.0939134836
  H        17.2325398992        4.2606964401        7.2486579974
  C        18.9352056743        5.7392856093        7.0741986266
  H         5.4315240985        7.4409933874       -0.5780546740
  H         6.4010800596        8.3027428878        0.4985234556
  C         4.4055466622        9.0532460500        0.4107293822
  H        12.7630102615       -1.5762982595       -2.3579115025
  C        13.1669254422       -0.1990377188       -3.7795490556
  H         5.0585209274        9.2942895846       21.8352718845
  H         5.8494616200       10.3221634691       20.8554305845
  C         7.1998409752        9.1024469874       22.0613523141
  H        19.3491905341        5.3322890309        8.0506554508
  H        19.1103997101        6.8386831938        7.1847645484
  C        19.7923148284        5.2912503757        5.9169508661
  H         4.1638629501        9.4361237890       -0.5446258679
  H         3.4492831674        8.7604165085        0.8385729625
  C         4.8107834792       10.1433359689        1.3087719071
  S        13.8260187439        1.2504064959       -4.2774131463
  C        13.3078917926       -1.3302984474       -4.6949952172
  H         6.9039772670        8.4342905277       22.7099019941
  H         7.4344691019       10.0289079818       22.4723884359
  H         8.0648386061        8.7957257028       21.4694290747
  H        19.6145855622        4.3073266845        5.5070912671
  H        19.6479813823        5.9944530155        5.1151912682
  H        20.8240394897        5.3059103380        6.1228675742
  H         5.6136343998        9.9385133401        2.0725104586
  H         5.2926210816       10.9019194494        0.7160109256
  H         4.0024376538       10.5930917736        1.9220356078
  C        14.3047118462        0.3828693748       -5.7683215065
  N        13.9306983701       -0.9115073730       -5.7658612346
  O        12.7464957065       -2.4138081629       -4.4969902002
  S        14.9495556246        0.9912443208       -7.2892756483
  C        14.2284493737       -1.7349824918       -6.9360728349
  H        14.2641903774       -2.7914196921       -6.6104699145
  H        15.1926930861       -1.5383265139       -7.3480953238
  C        13.0514483578       -1.7150920155       -7.9066842201
  H        13.1699425927       -2.5570844836       -8.6018810953
  H        13.1581788103       -0.9625264062       -8.6086350445
  H        12.0133673335       -1.7464247777       -7.4579763756
