352
 i =    67500, time =    33750.000, E =       100.4520479563
  H        12.1898303030        5.8893232210       32.2783100016
  C        11.0797097532        5.7680541214       32.3666291061
  H        10.8764914451        4.7060492954       32.4842286853
  C        10.2714159351        6.1580422074       31.1183054429
  C        10.4485777190        6.6692750096       33.5308187167
  C        10.4326736589        5.3123003744       29.8929129120
  H         9.2533313789        6.0396695287       31.3540564903
  H        10.4937925855        7.1428586454       30.8299723934
  H        10.5009473090        7.7184756285       33.2730460740
  H         9.4453342833        6.3773269734       33.7363141440
  H        10.9590245795        6.5029801679       34.4487665273
  C         9.6399970731        5.7871508971       28.7076392852
  H        10.1093530076        4.3261241884       30.1038452799
  H        11.5002362442        5.3056046306       29.6211124454
  C        10.4486437457        5.8080015244       27.3680123888
  H         8.7479637276        5.1703043184       28.6514398158
  H         9.2728701824        6.7517311236       28.9365807831
  C         9.5584066025        5.1754136465       26.2732291092
  H        11.3101841549        5.1203831401       27.2760618096
  H        10.8267778542        6.7987617673       27.1333485353
  C         8.2844418440        5.8820212403       26.0912304586
  H        10.1331214316        5.2602965680       25.3485088103
  H         9.4621271211        4.1065978074       26.6064456947
  C         7.2012171047        5.1360812967       25.2502442502
  H         7.9176733501        6.3164648094       27.0519096618
  H         8.5965434336        6.8046392005       25.5633153364
  C         6.8131267392        3.8171674382       25.9662534315
  C         7.7099735852        4.4661669278       23.9977114272
  C         5.8853671228        5.9123856703       25.2415108254
  C         7.0715237138        2.7209739912       25.1690187845
  C         6.2630017769        3.4641048393       27.1717079336
  C         7.6157573589        3.0995350122       23.9569791532
  C         8.3101193147        5.0439926660       22.8809033122
  H         6.1428842082        6.8939935143       24.7402586827
  H         5.7108228094        6.0699278407       26.2715388903
  C         4.7791295374        5.2218937668       24.5359134693
  S         6.6527714628        1.1941238001       25.9788230938
  C         6.2255854259        2.0972939222       27.3484153534
  H         6.0190567530        4.2510007697       27.8321559186
  C         8.0893710069        2.4704859878       22.8067615881
  H         8.5071385487        6.1293345976       22.9070774952
  C         8.7251051934        4.4753413793       21.7479743007
  H         5.0833629247        4.8770011464       23.5341932162
  H         4.6148821846        4.3016577382       25.0539055414
  C         3.4615426033        5.9845037710       24.4451226309
  C         5.6705215856        1.4095295489       28.5792094794
  C         8.6236934298        3.1336410923       21.6665137401
  H         7.8530342343        1.4364497719       22.6979763521
  C         9.0982028548        4.9307158959       20.5399137596
  H         2.8182355413        5.6462177154       23.6698552278
  H         3.8439046705        6.9684826675       24.1309810259
  C         2.7609080879        6.2511973876       25.8130241919
  C         5.8270852492       -0.0107228854       28.8514189288
  C         5.2472450076        2.2320438923       29.7421003914
  C         9.0261214163        2.5148406700       20.3836288000
  C         9.3050053314        3.9252140276       19.6901006081
  S         9.4531264976        6.4971970368       19.8174886712
  H         1.9549821979        6.9136386432       25.6386750538
  H         3.4219229920        6.9046836919       26.4703186408
  C         2.2048776727        4.8991439174       26.4197511786
  N         6.2876242200       -1.0146471097       27.9313190027
  C         5.6862896128       -0.5306140501       30.1247062377
  C         5.0398653117        1.6435724793       30.9889697706
  H         5.0355269566        3.2992540020       29.6038513348
  C         7.7925886723        1.8654376149       19.7133257818
  C        10.1903685505        1.6153388616       20.3349925192
  C         9.7100330435        4.2903360875       18.3885864824
  C         9.8207377849        5.6663622674       18.3140928574
  H         1.6172943921        4.3978392755       25.6447338654
  H         3.0310386277        4.2769541233       26.6551180241
  C         1.3914906987        5.0451053062       27.7542384410
  S         6.3218459302       -2.4351940311       28.7135119193
  N         5.9459742116       -1.8792890722       30.1818062697
  C         5.2187685023        0.2028763840       31.2307604519
  H         4.8432999380        2.2330782733       31.8025573171
  H         7.4092338439        1.0659529344       20.3838306035
  H         8.0328005076        1.3459301232       18.7570758901
  C         6.5803561027        2.8181598122       19.5291052451
  H        10.2941223313        1.0580961542       19.3760027180
  H        10.0539112020        0.9025193953       21.1812363039
  C        11.4942074224        2.3894701433       20.5193176946
  H         9.8270508254        3.5975477087       17.6262952479
  C        10.0870595127        6.4000104909       17.0520304967
  H         0.9460319542        4.1107067447       27.9906152612
  H         0.5938290046        5.7512095807       27.6905820735
  C         2.2944318794        5.4943903266       28.9133683494
  C         5.0170923588       -0.4994699744       32.4908211593
  H         6.7812993034        3.5889054562       18.8036424787
  H         6.3344106218        3.0968858398       20.5196020513
  C         5.3717585717        2.0034942679       19.0318623185
  H        11.2821431691        3.1312209102       21.1606583118
  H        11.8763395056        2.8822874836       19.6081709420
  C        12.4966525136        1.4599088194       21.2697716217
  C        10.1562301755        7.7884290455       16.7753824511
  C        10.3570178266        5.6461927464       15.8002267801
  H         3.1150492550        4.8513257823       29.2761470816
  H         2.7483664259        6.3996823860       28.5727177596
  C         1.5779058100        5.9378690231       30.1374476654
  H         5.2972509452       -1.5325965755       32.5000430784
  C         4.7180578890       -0.0124358598       33.8113576061
  H         4.8487423769        1.6011843214       19.9434667294
  H         5.7744227863        1.2117568702       18.3732129075
  C         4.4705585347        2.9082841301       18.1882561350
  H        12.0579670092        1.1623525996       22.2015334389
  H        12.6053007341        0.5705122955       20.7474818829
  C        13.8618984367        2.0491631134       21.3943016492
  N         9.8789414100        8.8000925363       17.7332593862
  C        10.3313930073        8.3263136821       15.5081678404
  C        10.6372813575        6.1985867371       14.5456173002
  H        10.3289815676        4.5350129551       15.9041865921
  H         1.7620460485        5.2152870015       30.8976641849
  H         1.7989647164        6.9280889617       30.5943320073
  H         0.5212400216        6.0411920633       30.2620409143
  S         4.3929605452        1.6199756016       34.2426193742
  C         4.7539283595       -0.9403824153       34.9775013716
  H         4.2691028896        3.7852600484       18.8776339594
  H         4.9724960709        3.3144438806       17.3424530723
  C         3.1181100443        2.2902381395       17.8258398161
  H        13.9640135635        2.9340468009       20.7172439747
  H        14.4858223882        1.2774629074       21.0265206318
  C        14.2728310468        2.3802408199       22.7791639142
  S         9.9068031203       10.3107130541       16.9931385510
  N        10.3273421089        9.7141681355       15.4984424882
  C        10.6168069038        7.6603662367       14.3517007611
  H        10.9575448607        5.5100797424       13.8217015450
  C         4.1910355531        1.0435013979       35.8913637425
  N         4.3029725015       -0.2599773388       36.0824453940
  O         5.0690619067       -2.1097939873       34.9680247550
  H         2.5353646779        2.8871330321       17.1147645998
  H         2.4642948859        2.1463324253       18.7024627753
  C         3.2528831500        1.0035887263       17.0096471726
  H        13.3669932978        2.5389643349       23.3893243091
  H        14.6739745944        1.4368808781       23.0514362756
  C        15.2950484247        3.5844726270       22.8459853354
  C        11.0129264749        8.3553204486       13.1653405307
  S         4.0108936577        2.0395698858       37.3646708778
  C         4.3304683444       -0.8206218846       37.4543866976
  H         2.4735784892        0.9797660160       16.3614306454
  H         4.1436772525        0.9800437850       16.3461826678
  C         3.2662669249       -0.3299745361       17.6836099895
  H        15.2187426486        4.0870620545       23.8405140522
  H        14.9769539795        4.2570941248       22.0732785074
  C        16.6998557020        3.1371994074       22.6171441573
  H        11.0376791033        9.4479375736       13.1393159902
  C        11.4554384816        7.9958396899       11.9519878025
  H         3.7260466730       -0.3284818780       38.1591806206
  H         3.9939781836       -1.8360178247       37.4474395054
  C         5.8007869130       -0.8429294677       37.9822732370
  H         3.2077798330       -0.1438250891       18.6982657109
  H         4.2983708377       -0.7567020611       17.4921714031
  C         2.2253908243       -1.3734245058       17.1728345900
  H        16.8643082324        2.6447590352       21.6767731195
  H        17.2841628683        4.0789564304       22.5682945212
  C        17.2215301214        2.2218132440       23.7308166041
  S        11.9274074553        6.4307780850       11.3617757523
  C        11.5127323453        9.0655894156       10.8260180402
  H         5.8470529856       -0.2874878559       38.8948600339
  H         6.1482257037       -1.8634677338       38.1749619253
  H         6.4573562164       -0.4339016326       37.2621869955
  H         1.5606317257       -1.5720624512       18.0101174721
  H         2.7527555767       -2.3585371559       17.0361693152
  H         1.6048740179       -1.2224981302       16.2626238060
  H        16.9343789803        1.2316896894       23.5581918320
  H        16.8165050620        2.5983698931       24.6598686169
  H        18.2609775786        2.3191341420       23.7243863703
  C        12.4540017335        7.2651005135        9.8559519996
  N        12.2654029807        8.5882319444        9.8172038829
  O        11.2015505281       10.2277044965       10.9608589019
  S        13.4724047085        6.5994766223        8.6425606908
  C        12.5040111145        9.4481102284        8.6474773297
  H        12.6824746007       10.4553601851        8.9058706342
  H        13.4215963692        9.1673924635        8.0730260807
  C        11.2176315993        9.4953962373        7.7560214436
  H        10.4138929056       10.0005139729        8.2450657547
  H        11.3314715892        9.9688944152        6.7961579264
  H        10.8157384910        8.4613321129        7.5297416244
  H         4.7509663307        1.9871551055       12.1551144123
  C         4.0700560083        2.8041277643       12.3684630291
  H         4.6133287463        3.7264817577       12.3379876361
  C         3.2386816818        2.9528987956       11.0698844760
  C         3.1609147716        2.7000317637       13.5892465773
  C         4.0995070450        3.0777540239        9.7488683703
  H         2.6218380414        3.8122209479       11.0813123983
  H         2.5949949411        2.0873251544       10.9730933879
  H         2.8742668843        1.6601411340       13.5745974591
  H         2.2959668015        3.2906799158       13.6440529288
  H         3.7788210310        3.0542490625       14.4237964745
  C         4.6975806530        1.8074948961        9.2061847307
  H         3.3879408801        3.3643887653        8.9057716855
  H         4.8562833832        4.0111198494        9.8679658185
  C         5.5317869059        2.0029367724        7.8890036994
  H         3.8555099473        1.0975793207        9.1218982786
  H         5.3844849848        1.5098776795       10.0090473266
  C         6.7675488433        2.8853389148        7.9278935039
  H         4.9482715916        2.2119946468        7.0329737154
  H         5.8771069849        0.9471671066        7.6501454241
  C         7.8596646940        2.2437257672        8.6437187365
  H         7.2227646995        2.8656615870        6.9020465303
  H         6.5982841371        3.8761535101        8.3072734424
  C         9.0545904761        3.0948070887        8.8253900206
  H         8.2075911557        1.3304171282        8.2236336840
  H         7.4791132395        1.8911337407        9.5861038149
  C         8.6881702851        4.4257556907        9.4719539541
  C         9.6047194105        3.7504027232        7.5740049798
  C        10.0631553894        2.2988700992        9.6572151484
  C         8.9733086185        5.5091334886        8.6811126464
  C         8.1258565706        4.8092445296       10.7131395003
  C         9.5200271678        5.1413609888        7.4815597052
  C        10.2606407319        3.1636182565        6.4689337470
  H         9.5962840700        1.9685721207       10.5036233503
  H        10.3419198295        1.4240468845        9.1387289162
  C        11.2862723824        3.1221187747       10.0613377989
  S         8.4795931041        7.0620358480        9.4587500071
  C         8.1354208159        6.1418847869       10.9028374122
  H         7.7831891101        4.0932529948       11.4099118194
  C         9.8817840445        5.7775438616        6.3275319019
  H        10.2824824348        2.0720944840        6.5141878882
  C        10.6195007535        3.7659151186        5.2896241596
  H        10.9905947066        3.8303017625       10.7906109827
  H        11.6158525470        3.4704519274        9.0860134990
  C        12.4101598331        2.3085646203       10.7819517479
  C         7.7073713039        6.7673787360       12.2062249655
  C        10.4226114451        5.0923002230        5.1930599906
  H         9.7705805756        6.8621690389        6.2683674240
  C        10.9766094965        3.3512435834        4.0250952525
  H        13.3976224557        2.8778408535       10.5529291578
  H        12.3536907412        1.3847323912       10.2952101905
  C        12.2457362894        2.3020042166       12.3065031787
  C         7.7273809230        8.1463704086       12.5931058614
  C         7.2801967526        5.8649748712       13.3444331979
  C        10.8703837897        5.7853920604        3.9219702318
  C        11.1701736992        4.4706989686        3.2128390961
  S        11.2063983354        1.8461874936        3.2279412021
  H        11.6900118234        3.1854605466       12.6443840723
  H        11.6199366027        1.4026119444       12.4545331735
  C        13.5067376696        2.1067603513       13.1397162079
  N         8.2755189777        9.2068866907       11.8119854462
  C         7.3965806203        8.6016303507       13.8760325213
  C         7.0994262397        6.2774362531       14.6661241548
  H         7.2572272982        4.7953510242       13.2493338070
  C        12.1231999767        6.7080905987        4.2777558368
  C         9.7771914088        6.6222195018        3.1652063131
  C        11.5073449047        4.0834838546        1.8791452468
  C        11.5036821097        2.6574816825        1.7760861455
  H        14.0855047579        3.0158442348       13.1283243320
  H        14.0580551939        1.2987786767       12.6520625038
  C        13.2036667606        1.6483877818       14.5573730411
  S         8.0378086240       10.6238419003       12.6263757965
  N         7.3983197890        9.9833981155       14.0026077990
  C         7.1147925990        7.7498465224       14.9836902277
  H         6.8375676192        5.5408060619       15.3738577434
  H        11.9161357404        7.5261786613        4.9354481548
  H        12.5983067905        7.0425016144        3.3378093953
  C        13.2372263295        5.9062392766        4.9514880979
  H         9.5824926442        7.4359948295        3.8748079835
  H        10.2390988045        7.1270760692        2.3127119723
  C         8.5865966862        5.7777452072        2.7271840811
  H        11.6416020638        4.8776329978        1.1590347705
  C        11.8592573566        1.9659909901        0.4939075846
  H        12.3321372506        0.9618759851       14.6699002244
  H        14.0441872091        0.9504879235       14.7826385855
  C        13.3830586027        2.7503612579       15.5741740140
  C         6.8648197497        8.3126210270       16.2264355605
  H        12.8401246688        5.5860146156        5.8435743585
  H        13.4885599200        4.9751399306        4.4925031884
  C        14.5553991214        6.5516009789        5.2857796551
  H         8.4717772189        5.1708930669        3.5839900771
  H         8.9694548130        5.0556139609        2.0095206217
  C         7.2876376688        6.5403623369        2.5055189176
  C        12.0125019572        0.4980614382        0.3656577498
  C        12.1477647398        2.7268274326       -0.7260016926
  H        12.5659543776        3.3900368593       15.3336362836
  H        14.2898745815        3.3632152827       15.6360534006
  C        12.9692984277        2.3408232415       17.0396115343
  H         7.1528060455        9.2832594213       16.3745318973
  C         6.3837465241        7.8116725108       17.4479094180
  H        14.3570112374        6.9950092073        6.2560601520
  H        14.7069832777        7.2754932006        4.5240725364
  C        15.7372229674        5.4881835197        5.4004082275
  H         7.1547340934        7.3084521116        3.3583314571
  H         7.4763570144        7.2512861466        1.7358170191
  C         6.0116303736        5.7251110997        2.2491668321
  N        11.8045904455       -0.3731103849        1.3837247035
  C        12.1826190701       -0.0661946032       -0.8868636181
  C        12.4298734068        2.1426250003       -1.9404918806
  H        12.0345390647        3.7819042924       -0.6449354910
  H        13.8539861745        2.4972014862       17.6858223567
  H        12.5505718617        1.3211994833       17.1420084567
  H        12.1997869241        3.0486244296       17.3970519001
  S         5.9866817285        6.1839487727       17.9877382042
  C         6.3792081314        8.8548047617       18.4940478438
  H        15.4641555804        4.6382519926        5.9993546076
  H        16.0609255037        5.0168275016        4.4407102324
  C        16.9949084660        6.1848550996        5.9132465047
  H         5.5994208886        5.6347775977        3.2478687942
  H         6.3129848234        4.7281653353        1.9376194928
  C         4.9594234488        6.4018119923        1.3392953221
  S        11.5893706057       -1.8908830894        0.6237860658
  N        12.0249117741       -1.4466122373       -0.8559006633
  C        12.4740419058        0.6706235934       -2.0494780080
  H        12.5739157078        2.8152847321       -2.7896673889
  C         5.7487171163        6.9846451422       19.5534052885
  N         5.9637785552        8.3143560859       19.6399242571
  O         6.7774001414       10.0152190582       18.4079229175
  H        17.6202235115        6.3384276456        5.0114284392
  H        16.8512175503        7.2576989819        6.2248626316
  C        17.8255055097        5.3453900702        6.8366433508
  H         5.3453450889        6.8762295439        0.4390124274
  H         4.1667471568        5.7268183724        1.0272910236
  C         4.3545833111        7.5913533418        2.1257089650
  C        12.7949746198       -0.0179754631       -3.2097588095
  S         5.2985203594        6.2112226224       21.0832469444
  C         6.0755166977        9.1084381284       20.8951040093
  H        17.2417731848        5.4499002910        7.8359681670
  H        17.9472219401        4.3663943082        6.3823388020
  C        19.2109516524        5.8751358921        7.0833396836
  H         5.0693700976        8.1606664929        2.6642538391
  H         3.7590814603        7.1337251844        2.8899890909
  C         3.5465368368        8.4262472992        1.1542080392
  H        12.8201902422       -1.1120895109       -3.0885440135
  C        13.3455496906        0.3033084566       -4.4191548920
  H         5.5626922035        8.6240604638       21.7159398557
  H         5.5888234264       10.0732489287       20.8950477302
  C         7.5487060136        9.3239800611       21.3465122924
  H        19.6934120930        5.5209035439        7.9377124402
  H        19.2231635157        6.9494823816        7.2937693545
  C        20.2323630576        5.4870490388        5.9542113970
  H         3.2290303229        7.7706037497        0.3544017156
  H         2.7551173024        8.8542841178        1.8091490944
  C         4.3645043069        9.6672731680        0.6278477367
  S        13.9303171513        1.8261800643       -4.8539497115
  C        13.4361485261       -0.7652657064       -5.4322539427
  H         7.6909647098        8.9470043934       22.3414125764
  H         7.8108283162       10.3773480998       21.2553146590
  H         8.2270289713        8.7649825357       20.7188352039
  H        19.8548566350        4.6597002203        5.3421465198
  H        20.1892831567        6.3083532675        5.2328615042
  H        21.2722213024        5.3181635819        6.2619586178
  H         3.9914142619       10.5788507524        1.0791198982
  H         5.3979836349        9.6084390172        0.9215986266
  H         4.1718512510        9.7569470596       -0.4639032958
  C        14.0987039162        1.1810425011       -6.4775804703
  N        13.9464960786       -0.1879767447       -6.5229466719
  O        13.0714697110       -1.9104996428       -5.3573263521
  S        14.8482891401        2.0810477510       -7.8279471968
  C        14.2541738629       -1.0154636639       -7.7068884251
  H        14.3465378975       -2.0926916490       -7.4601198978
  H        15.1443502565       -0.6977272555       -8.2018157201
  C        13.0841675794       -0.8593822883       -8.7341132823
  H        12.2105605402       -0.6797910119       -8.1282351239
  H        12.9062934882       -1.6146457013       -9.4951612675
  H        13.1736921109        0.0545548843       -9.3706221626
