352
 i =    35100, time =    17550.000, E =        97.4158461032
  H        10.3009662034        4.6569747966       31.7957904249
  C        10.6574934752        5.6239736050       32.2489575708
  H         9.6087589052        5.9661743529       32.4393900528
  C        11.3242394614        6.4986279114       31.2014732881
  C        11.5943827413        5.3824331387       33.4218398616
  C        11.6419206313        5.7296731073       29.9331520932
  H        10.4628556518        7.1419308407       30.8796592207
  H        12.2772266872        7.0209675839       31.4171671578
  H        11.0961202004        4.8570209286       34.2669249367
  H        12.3164355489        4.5963833531       33.0218131931
  H        12.0853015769        6.3490330674       33.6816269462
  C        10.5260770366        5.2633803786       29.0377350517
  H        12.3560056625        4.8604684785       30.1711051605
  H        12.1587360626        6.4353598809       29.3089161543
  C        10.8398374803        5.3497626907       27.5080010789
  H        10.3373756500        4.2946351285       29.3761074096
  H         9.6258808160        5.7976364509       29.2132576801
  C         9.6985752108        4.6852013568       26.6613515960
  H        11.7075025537        4.7693731026       27.2925526397
  H        11.0012554490        6.3358855579       27.1635567994
  C         8.4167696071        5.4783695980       26.5168185517
  H        10.1486283369        4.3697689645       25.7141387559
  H         9.3404377862        3.9129250787       27.3130594943
  C         7.2155618520        4.7273981733       25.7226585464
  H         7.9409298866        5.7901680896       27.4793861558
  H         8.6461288365        6.3681129501       25.9506207809
  C         6.7845994936        3.4142825880       26.3790503027
  C         7.6211866709        4.0767579645       24.4689006741
  C         6.0419279621        5.7028894930       25.6255561902
  C         7.0802329195        2.3362735425       25.5959654788
  C         6.2013112399        3.0260583068       27.5959913098
  C         7.5439536017        2.7369801639       24.3374481324
  C         8.0836991645        4.7157136893       23.3259505292
  H         6.3390360663        6.5688066988       25.0450968298
  H         5.8339140938        5.9588345926       26.6749422147
  C         4.7508049908        5.1870506274       25.0018043551
  S         6.6294710772        0.8158272958       26.2363666784
  C         6.1543300547        1.6318360692       27.6641839588
  H         5.7485305471        3.6370849277       28.3568836871
  C         7.8880799801        2.1031656770       23.1626632167
  H         8.0783092523        5.8056686836       23.4500776344
  C         8.5573003140        4.1356229749       22.1959030493
  H         4.9273351403        5.1059180662       23.9590140646
  H         4.5821593819        4.2676198042       25.4496943941
  C         3.4012770937        5.9631149553       25.0748987173
  C         5.6639453157        0.8695975640       28.8861227991
  C         8.3991362748        2.7537499217       22.0014448860
  H         7.8645136489        1.0658004972       23.1985424962
  C         9.0117610056        4.5446812245       20.9493459541
  H         2.6615540487        5.5002156441       24.4125364313
  H         3.5308629583        6.8996246925       24.6865435048
  C         2.8868108033        6.1795586227       26.5338866390
  C         5.7045096777       -0.5074817233       29.1115796779
  C         5.0669814208        1.6703039107       29.9459073650
  C         8.9281144116        2.1044492542       20.7779124969
  C         9.2863465639        3.4325049349       20.0984912764
  S         9.3995874442        6.0158210166       20.1733777173
  H         2.3339883455        7.0179594818       26.6130869872
  H         3.7850530643        6.3227197738       27.1524437394
  C         2.2090824054        4.9277047171       27.0430377516
  N         6.1114101499       -1.5202469212       28.2399973759
  C         5.5376571407       -1.0393488999       30.3997290259
  C         4.9073237577        1.1753641497       31.2655308223
  H         4.8101806176        2.7075686047       29.8465832978
  C         7.8294277739        1.3929042173       19.9481369720
  C        10.1175220791        1.1699696675       21.0411836578
  C         9.7052251169        3.8845026924       18.7992609841
  C         9.7659704686        5.2286564898       18.6515506066
  H         1.3875770688        4.7741020178       26.4555414823
  H         2.8813947745        4.0900078653       26.9904623521
  C         1.6307587887        4.9870259582       28.4996998793
  S         6.1035561962       -2.9736035102       28.9747950045
  N         5.9540724134       -2.3907477290       30.4867432888
  C         5.1922296984       -0.2941843762       31.5496988188
  H         4.5966761644        1.8590191394       32.0815670821
  H         7.4849313324        0.5503837396       20.5249531822
  H         8.3519395570        0.8994363459       19.1101133119
  C         6.6041228923        2.1510625942       19.7505966962
  H        10.3426991774        0.6694646715       20.1099592989
  H        10.0306567598        0.6093895826       22.0054336426
  C        11.4577837630        1.9683432168       21.1351613937
  H         9.9366395789        3.1422174883       18.0478675279
  C        10.0287201798        6.0286919870       17.3898620504
  H         1.0204147655        4.1274064911       28.7319419193
  H         0.8643189957        5.7518154722       28.5762839963
  C         2.6892025798        5.2868205583       29.5749334545
  C         5.0784505991       -0.9356942471       32.8043370533
  H         6.7549686288        3.2185101162       19.7057506015
  H         6.1342686034        1.9700287012       20.7113828993
  C         5.8081764131        1.6644924182       18.4865912415
  H        11.3470940209        2.9065692137       21.6734036213
  H        11.7093263949        2.2148848816       20.0894167319
  C        12.5965611619        1.0978199426       21.6372523425
  C        10.1189453345        7.4548583425       17.2799712475
  C        10.2506464772        5.2592088055       16.1268217140
  H         3.4219481828        4.4854703472       29.3866713753
  H         3.2039718445        6.2048104406       29.5143977583
  C         2.1098705493        5.2579198381       30.9573727528
  H         5.1598598406       -2.0433812521       32.7538530049
  C         4.7458600675       -0.5221715126       34.0566535112
  H         5.7188672787        0.5938523279       18.5567098772
  H         6.3124501396        2.0214408585       17.5486615637
  C         4.3885725632        2.2041967633       18.6233156585
  H        12.1731260376        0.3765649912       22.3513281576
  H        12.9702700979        0.5383319912       20.8149147156
  C        13.6562482793        2.0323107416       22.1234190753
  N         9.9920076869        8.3179691595       18.3866240439
  C        10.3437872610        8.0810382401       16.0950517562
  C        10.5653802333        5.8244320220       14.8975298718
  H        10.3172170341        4.2170366948       16.1501510709
  H         1.1982270072        5.8156196875       30.9416857411
  H         2.0259092044        4.2373127486       31.4664867256
  H         2.7461316126        5.9179528143       31.5408862642
  S         4.4796586076        1.0763434679       34.5015298978
  C         4.6833525539       -1.4849662890       35.1517050035
  H         4.4901605025        3.1547205455       19.1872358871
  H         4.1574741810        2.7155254943       17.6417173277
  C         3.3107028862        1.2420845312       19.1470730296
  H        13.2153470323        2.9075217387       22.6931443683
  H        14.1211181731        2.3494610192       21.2119211688
  C        14.7084794752        1.3537555411       22.8766441091
  S         9.9706746575        9.8318057729       17.7444501458
  N        10.2462752375        9.4920776064       16.1791151439
  C        10.5605222265        7.3250444438       14.8926342499
  H        10.4795536026        5.1698573048       14.0053954302
  C         4.3608332687        0.4813236316       36.1886959796
  N         4.4271476485       -0.8674194340       36.3021737771
  O         4.7367816814       -2.7577826817       34.9762065064
  H         2.4078785869        1.8726472571       19.3742978836
  H         3.6070989567        0.7238647327       20.0696371690
  C         2.9135410370        0.3309902256       18.0042630867
  H        14.3505062638        0.6767205438       23.6631402798
  H        15.2454357493        0.6136438106       22.2401669992
  C        15.7244656846        2.2737395875       23.4941434369
  C        10.6580754714        8.0532730875       13.7084433500
  S         3.8346867866        1.3517074886       37.6403040300
  C         4.4238346356       -1.5186836086       37.5706045047
  H         2.5083351355        0.8681371590       17.0861531750
  H         3.7938354626       -0.1764255984       17.6131833968
  C         1.8787869774       -0.6639238811       18.4457989252
  H        15.2421338972        2.9531654108       24.1274354032
  H        16.1462532257        2.8255980765       22.6122940409
  C        16.9028320246        1.5566007957       24.1628270297
  H        10.4115903404        9.1059314108       13.8404796354
  C        11.2178681014        7.8317364999       12.4593400563
  H         3.6184758249       -1.2447876859       38.1982216361
  H         4.3857301959       -2.5540938484       37.3669431343
  C         5.7795352009       -1.5019982994       38.2129303633
  H         0.8420650341       -0.2854298003       18.6935022275
  H         2.1582947897       -1.0708436586       19.4237172675
  C         1.6968339502       -1.8780784834       17.4608289785
  H        17.2765664863        2.1441082718       24.9761490236
  H        16.5857118295        0.5845208164       24.5235915045
  C        18.0492968495        1.4378958905       23.1494746712
  S        11.9715415305        6.4061241707       12.0060191045
  C        11.2914167030        8.9660648801       11.5809927171
  H         6.3225194967       -2.3360617759       37.7083858440
  H         6.2519027225       -0.5060349408       38.1439461034
  H         5.6570371764       -1.7730910916       39.2884049479
  H         1.0113358856       -1.6479066532       16.5055750940
  H         1.2113873987       -2.6806431762       17.9827116022
  H         2.6386101898       -2.3142645850       17.0801339720
  H        19.0122745492        1.0721058759       23.5355618329
  H        18.3906750041        2.3940350039       22.9789503013
  H        17.7831749575        0.9837632179       22.1255617178
  C        12.3685404881        7.2981951811       10.5164486573
  N        12.0319377952        8.5932604962       10.5501066768
  O        10.7942892650       10.0314223314       11.7917829816
  S        13.4212388206        6.6781667197        9.2706364220
  C        12.2249202742        9.5837679116        9.5361997433
  H        12.6350417656       10.5538283877        9.8842297649
  H        12.9558376250        9.2165770502        8.8480251647
  C        10.9558591450        9.7733278736        8.7091181551
  H        10.4531566731       10.7698833363        8.8405175554
  H        11.3139111508        9.8095238766        7.7058531383
  H        10.2724660666        8.9492902487        8.7881971496
  H         2.9883379613        2.4375070155       13.7119971290
  C         3.5617615131        2.0022347567       12.9412939251
  H         3.6567445238        0.9144662135       13.1152642685
  C         2.7241966670        2.1470432943       11.6078299420
  C         4.9205303138        2.8128179375       13.0109674710
  C         3.5680675931        2.4807942592       10.3948101151
  H         1.9573829432        2.9089454211       11.7192750167
  H         2.1273715311        1.2318617921       11.4075924755
  H         5.4813730999        2.8282076548       13.8991354891
  H         4.7378301546        3.8319737349       12.7647155722
  H         5.5404292774        2.2367133978       12.3156086824
  C         4.3812226863        1.2619438320        9.9020365665
  H         2.9683315540        2.7280025033        9.5664572663
  H         4.2078617581        3.2960964037       10.6632465527
  C         5.1722515039        1.6255294266        8.6703934279
  H         3.6054169453        0.5785540138        9.5599649674
  H         5.0123986725        0.8495189285       10.7222991646
  C         6.3835761074        2.5115291346        9.0625432496
  H         4.5150159890        2.2196729814        8.0334017985
  H         5.5060161328        0.7085693958        8.1940098114
  C         7.6201798804        1.7557337005        9.5511602369
  H         6.7803666861        3.0690561239        8.2285859828
  H         6.0849511774        3.2638978064        9.8690486508
  C         8.9107572000        2.5615236428        9.6347280137
  H         7.8109001619        0.8691130586        8.9611188277
  H         7.3723184384        1.3954398342       10.5375542835
  C         8.7381845114        3.9553456531       10.2347681397
  C         9.3765285995        3.2450170087        8.2974169376
  C        10.1214684982        1.7916215359       10.3089751448
  C         8.9618902872        5.0355530185        9.3952870269
  C         8.3241659831        4.4205404957       11.5080465561
  C         9.4673870381        4.6285562537        8.1771580434
  C         9.7984514399        2.5648344772        7.1502304995
  H         9.7637807477        1.3149930243       11.2259469534
  H        10.4950395679        0.9649920272        9.6738766251
  C        11.3675707283        2.5877408725       10.5400812420
  S         8.6928072884        6.5569782924       10.1285824831
  C         8.2250556424        5.7731842035       11.6043846007
  H         8.1220114355        3.6886717669       12.2487844747
  C         9.8803574173        5.2311020882        7.0520327313
  H         9.8042488977        1.5208619721        7.3322982637
  C        10.1452210731        3.1850441979        5.9618760114
  H        11.1385873638        3.6179493891       10.7322698648
  H        11.9391877079        2.7875554363        9.6379313851
  C        12.3873848425        2.0300091824       11.5599974385
  C         7.7384180818        6.4330619315       12.8948554907
  C        10.2063609813        4.5565344763        5.8296347430
  H         9.8924040681        6.2723412286        7.1290754681
  C        10.6217478956        2.8714321671        4.7321342628
  H        13.3033463928        2.5785122959       11.4605337130
  H        12.5895364341        1.0394774781       11.2483894455
  C        11.8551949683        1.9740775555       13.0347931767
  C         7.6679084967        7.8361077457       13.0708091837
  C         7.3944951268        5.6311321001       14.0737961441
  C        10.5035322577        5.2441318372        4.5279328780
  C        10.8263800471        3.9379267207        3.8769500296
  S        10.9698265006        1.3297997834        3.9681936834
  H        11.4818526998        2.9676839646       13.1044210953
  H        11.0649747172        1.3080402263       13.1277953002
  C        13.0400906302        1.6872783758       13.9800985755
  N         7.9114674927        8.7614631002       12.1056757674
  C         7.2874084159        8.4126559046       14.2548064130
  C         7.0091456111        6.2342956568       15.3185328864
  H         7.3479936062        4.5994400925       13.9600217753
  C        11.8231238162        6.1350097463        4.7200909976
  C         9.3328884486        6.1016761903        3.9877881487
  C        11.3934378658        3.5607645236        2.6271871508
  C        11.4927661457        2.2059246772        2.5423769738
  H        13.5316421870        2.6781356257       14.2976118458
  H        13.9086618403        1.2039104561       13.4600848626
  C        12.6015945780        0.7388009317       15.1663390012
  S         7.8442125938       10.2173457488       12.6833648620
  N         7.3198108037        9.8078390946       14.2014768098
  C         6.9958578243        7.6925916797       15.4463980555
  H         6.6850981817        5.5856982553       16.1206409928
  H        11.5915494099        7.0159263908        5.2504719580
  H        12.1026364662        6.5963031418        3.7611693257
  C        12.9641657421        5.3690881506        5.3710798283
  H         9.1627308995        6.8624420791        4.6502866503
  H         9.7292916396        6.5459531140        3.0595958050
  C         8.0625692340        5.4013709670        3.6314534281
  H        11.6292958537        4.2697437850        1.8868836784
  C        11.8695183504        1.4622396777        1.2520280599
  H        11.8464537056        0.0896487364       14.7841198126
  H        13.3811236269        0.1217370157       15.4351830909
  C        12.0712533854        1.4329623230       16.4411211640
  C         6.7986991292        8.3718626137       16.6778883184
  H        12.6842560756        4.9443168940        6.3040091595
  H        13.2060021725        4.4470091543        4.8046085093
  C        14.1528175850        6.2518012919        5.5588094046
  H         7.7644544704        4.7553039740        4.4904015449
  H         8.3027699029        4.8247208900        2.6923595065
  C         6.8745520262        6.2929425192        3.2849864699
  C        11.8272602236        0.0633042057        1.0355337582
  C        12.2717169448        2.2666413956        0.1412839348
  H        11.7286639981        0.7434902049       17.2838315914
  H        11.1311207661        1.9839630033       16.1995863173
  C        13.1382502336        2.3603167442       17.0950500051
  H         7.1237275670        9.4162978950       16.6569016445
  C         6.6215489484        7.8657202718       17.9651408960
  H        13.9119436525        7.1871668930        5.9957379493
  H        14.6141980086        6.4614896260        4.5543387730
  C        15.2663875899        5.6448525730        6.4897608555
  H         6.5908667629        6.9310612448        4.0501449619
  H         7.1276479252        6.8846191735        2.4365775735
  C         5.6717305937        5.3850839286        2.9668014110
  N        11.5322059890       -0.9000279682        2.0018118449
  C        12.0792761399       -0.5126774394       -0.2094078518
  C        12.5987555818        1.7056151096       -1.0573550676
  H        12.4342482356        3.2531137467        0.2206296511
  H        14.0330835513        1.8065054898       17.4247082021
  H        12.7800842553        3.0602730591       17.8045186235
  H        13.4447419268        3.0818325556       16.3749654056
  S         6.2807523232        6.2677789990       18.4324252775
  C         6.5799163788        8.8166296774       19.0701110008
  H        15.5059156689        6.4418230825        7.2958970615
  H        14.8420893840        4.9437635736        7.2091194994
  C        16.4149002688        5.1028527143        5.6381536656
  H         5.2377498150        5.0816832878        3.9529327819
  H         6.0271245589        4.5037277972        2.4380028386
  C         4.6823116984        6.0964165115        2.0442704775
  S        11.5180898740       -2.3910104223        1.3320401879
  N        12.0666750389       -1.9525209132       -0.1898108114
  C        12.5530638361        0.2108523166       -1.3051930456
  H        12.8651517678        2.3572754030       -1.8487639387
  C         6.1969989274        6.8483800875       20.0432478004
  N         6.2322871243        8.1869400844       20.1843167541
  O         6.9517499258        9.9713875561       18.8844878095
  H        16.0376614831        4.5114294227        4.7561397715
  H        16.9310869006        5.9836212410        5.2138576316
  C        17.4326315126        4.2898437780        6.3996935165
  H         4.9223536312        6.0795181959        1.0212355806
  H         3.9018852734        5.3764599385        2.0789584827
  C         4.0302513688        7.4458963869        2.4635527494
  C        12.7952280336       -0.5104304838       -2.5422703902
  S         5.7269092587        5.9401141417       21.4644745656
  C         6.2230162928        8.8858022946       21.5306116125
  H        16.9832683763        3.3903268130        6.9181207182
  H        18.2265922337        3.9783765250        5.7311275670
  C        18.1044271863        5.1156060661        7.5232764676
  H         4.2904418633        7.5822779986        3.5228829369
  H         2.9508929826        7.2955716297        2.4091133913
  C         4.5007774434        8.7058259922        1.6259274758
  H        12.5280863241       -1.5683143842       -2.5053683031
  C        13.2772489092       -0.1714665859       -3.7722969735
  H         5.3296806987        8.6596356463       22.1470078940
  H         5.9693638908        9.9613081018       21.3900514997
  C         7.5462038903        8.8362276951       22.2143850485
  H        18.0484061137        4.6131694352        8.4848100098
  H        17.6441933702        6.1082478717        7.6040186724
  C        19.5253191259        5.4301538221        7.1929198328
  H         4.8645804725        9.5272448744        2.2244117881
  H         5.3140878150        8.5558014709        0.9379154317
  C         3.3416024890        9.2005315463        0.8241404291
  S        13.7308611788        1.3975152460       -4.2441251809
  C        13.5295510339       -1.3043804529       -4.7188294681
  H         7.7772862176        7.8197573394       22.4712442633
  H         7.5284293231        9.4903954744       23.1019849892
  H         8.3075697492        9.2228890334       21.5935793763
  H        20.1512605993        4.5819649071        6.9319821310
  H        19.5455800917        6.1085580618        6.3354357245
  H        20.0450037189        5.8235378987        8.1539257391
  H         3.6299548904       10.0343331570        0.1645123052
  H         2.8020090587        8.4149927146        0.2351618027
  H         2.5826429480        9.5477247965        1.5021520033
  C        14.0958058038        0.5506310170       -5.8618584943
  N        14.0221450191       -0.7731943618       -5.8354350581
  O        13.4084444619       -2.5021840662       -4.4712049148
  S        14.9208722832        1.4122819600       -7.0730653103
  C        14.2913059536       -1.5430596158       -7.0136439312
  H        14.7023070209       -2.4668835979       -6.6862141027
  H        15.0621075009       -1.0888929732       -7.6201357042
  C        13.0536018603       -1.6586125558       -7.8375984592
  H        12.1876409311       -1.1968623320       -7.4413821920
  H        12.7420413993       -2.7035541746       -7.9257968906
  H        13.2115245627       -1.3724191827       -8.8521083320
