352
 i =    99200, time =    49600.000, E =        98.3410201132
  H        12.0028637881        5.9566894581       32.2651510415
  C        11.0617646249        5.4457480236       32.3722506077
  H        11.2500109369        4.3762386999       32.1085549210
  C         9.9465884556        6.1373254458       31.6382628859
  C        10.9017381805        5.2496852937       33.8711131237
  C        10.4633884399        6.4897338724       30.2077271186
  H         9.0381815595        5.5642570394       31.4429810460
  H         9.6897182261        7.0112004217       32.1813662760
  H        11.7166995957        5.7237469118       34.3665393833
  H        10.0063983238        5.6382245853       34.4033847247
  H        10.9189872444        4.1941586913       34.0974637555
  C        10.2022950297        5.3256494373       29.1512070058
  H        11.5337066453        6.6763525707       30.1748625065
  H         9.8728478926        7.2877571469       29.8055451447
  C        10.8334477489        5.6194794391       27.7664294800
  H        10.6305102166        4.4228377630       29.5416844282
  H         9.1583245334        5.0665371127       29.1425125426
  C         9.9481243833        5.0942028143       26.6847492467
  H        11.7876922754        5.1635785799       27.8641710115
  H        10.9140738600        6.6671117497       27.7327269469
  C         8.6083053169        5.8969070688       26.4274778591
  H        10.5500127087        4.9503251209       25.8076890259
  H         9.7604241861        4.0522784643       26.8539298129
  C         7.4516960290        5.1808144073       25.7284329040
  H         8.3130868588        6.1875900308       27.3766279935
  H         8.8895434017        6.7416289047       25.8253763544
  C         6.9976647823        3.8889087257       26.4689084410
  C         7.9121080433        4.5030528685       24.5169988467
  C         6.2028882786        6.1677511032       25.5791532265
  C         7.3205754178        2.7689107655       25.6993672288
  C         6.3880740668        3.5589483852       27.6979017611
  C         7.8677792316        3.1472070626       24.5135702032
  C         8.3267608878        5.1063097127       23.3357678739
  H         6.5385771639        7.0241230005       24.9769722828
  H         5.9481791354        6.5515942976       26.5899914430
  C         5.0120712239        5.5053764621       24.8630811159
  S         7.0498026828        1.2815871353       26.4635872269
  C         6.4309799022        2.2017582649       27.8773170715
  H         5.8584510556        4.2827384458       28.3341580630
  C         8.3246984724        2.5593814517       23.3621563695
  H         8.4304739767        6.1761340078       23.4120594498
  C         8.7024650432        4.4395854574       22.1975184242
  H         5.3479520378        5.2834951145       23.8666818669
  H         4.8246988978        4.5566709025       25.3356697632
  C         3.8080794643        6.4125669942       24.8823234997
  C         6.0442642951        1.4628926714       29.1298575975
  C         8.7298289482        3.1102152672       22.1410967132
  H         8.2679585277        1.4498298605       23.3144479125
  C         9.1446135914        4.7917621149       20.9449984022
  H         3.1698454047        6.1238552438       24.0750614254
  H         4.0836520556        7.3640200467       24.5418136066
  C         3.0699327152        6.6381841471       26.2379016173
  C         6.0971191932        0.0644342818       29.3299836626
  C         5.4683335705        2.2882088905       30.2494099903
  C         9.1855704671        2.3209155457       20.8826574673
  C         9.3662145918        3.6453544292       20.1934214369
  S         9.5245037341        6.2779832718       20.1112848994
  H         2.0870256504        6.9950891181       26.0006203637
  H         3.6799144695        7.3117928740       26.8029274081
  C         2.8031642877        5.3216360243       26.9634593480
  N         6.3722100812       -0.9166399731       28.3786848608
  C         5.6689197547       -0.4797694911       30.5684864640
  C         5.0178636118        1.6877570097       31.4629548658
  H         5.4089704102        3.3022035216       30.1045157072
  C         8.1873650253        1.4442335485       20.0017967888
  C        10.5060540416        1.4773666594       21.1482338027
  C         9.8312658513        4.0489298634       18.8939457337
  C         9.9165282993        5.3962500305       18.6916561056
  H         2.5113999065        4.4726845215       26.3440530087
  H         3.8037059097        4.9222667571       27.2098787722
  C         1.8894870543        5.4016270415       28.1872104775
  S         6.2619108849       -2.3661695045       29.1101232176
  N         5.8330568054       -1.8442178798       30.6340489145
  C         5.1560523853        0.2340414547       31.6660537164
  H         4.6547076264        2.3368213424       32.2715258816
  H         7.7522624120        0.7089239934       20.6212084365
  H         8.7296925033        0.9719822035       19.2220652650
  C         7.0495096324        2.2468931546       19.1838516974
  H        10.6514823345        0.6815192622       20.4989986079
  H        10.3180961119        1.0533329738       22.1729326619
  C        11.7454069692        2.2891372284       21.2407013018
  H        10.0114261934        3.3023108861       18.1010335130
  C        10.2719762422        6.0895306699       17.3215272725
  H         1.1889641392        4.5231414259       28.1626313244
  H         1.2891237253        6.3064956762       28.0289770528
  C         2.6601119425        5.5062183361       29.4297455762
  C         4.9089200622       -0.3578687757       32.9395812720
  H         7.3927603128        2.5299881044       18.2018054538
  H         6.8092394134        3.2575537210       19.4250807764
  C         5.7703721327        1.4805158555       19.0014236291
  H        11.6164921440        2.9604537695       22.0787668527
  H        11.9518194324        2.8622781395       20.3262725050
  C        12.9369081653        1.4643495876       21.6002382243
  C        10.3368376250        7.5311551066       17.1035056307
  C        10.6329175675        5.3383451650       16.0960181735
  H         3.1880593150        4.5744455815       29.4551800859
  H         3.3186717833        6.3632455194       29.5469533351
  C         1.7475277576        5.6111386017       30.6269763016
  H         4.8345571531       -1.4156863528       32.8752346632
  C         4.6395625349        0.1075700524       34.1375347500
  H         5.2520888923        1.3425189333       19.9454283619
  H         6.0081345478        0.4311887402       18.7883018914
  C         4.7626556233        2.1336410089       18.0348933646
  H        12.6208412799        0.9947494363       22.5097909934
  H        13.1439512262        0.6700593713       20.9475213737
  C        14.1404430439        2.3428139590       21.6405314064
  N        10.0530404735        8.5438952768       18.0262199472
  C        10.6157277542        8.0663956450       15.8269589792
  C        10.8298625802        5.8572580887       14.8445615259
  H        10.5529126497        4.2493740406       16.1557796820
  H         1.2510866354        6.5703859754       30.7568448119
  H         0.8623957104        4.9630473628       30.6366763468
  H         2.5288193242        5.4315052740       31.4299551185
  S         4.3374092208        1.6964314690       34.5810545516
  C         4.6670892280       -0.8982585409       35.1922725094
  H         4.1120148253        2.7755115915       18.6426836352
  H         5.3244491341        2.8410793405       17.3532426190
  C         3.9296572569        1.0632888610       17.3188135755
  H        13.8623813660        3.2873787255       22.0429649921
  H        14.4855860971        2.6942435784       20.6039610410
  C        15.2803902974        1.6420091617       22.3521033834
  S        10.4770757532        9.9408034295       17.3356043491
  N        10.8685592230        9.4154220286       15.8995331083
  C        10.7951413183        7.3159521141       14.6217036742
  H        11.1281246099        5.2969323013       14.0265582133
  C         4.0948476231        1.0537561741       36.2036871072
  N         4.3471610566       -0.2595334168       36.3496331736
  O         4.8751734777       -2.0995790264       35.0328773876
  H         4.5696096885        0.1695052964       17.0592867415
  H         3.5011072790        1.4007399069       16.3774613253
  C         2.6640174263        0.7517151276       18.2685556477
  H        15.0485080747        1.2884839162       23.3300608638
  H        15.5902465875        0.8425273425       21.6449321335
  C        16.5051577363        2.5722261152       22.5084243799
  C        11.0405620397        7.9587103850       13.3634006326
  S         3.7110233987        2.0488943534       37.6175394419
  C         4.2633738415       -0.9874473526       37.6369060812
  H         2.8544745233        0.5415771835       19.2400890100
  H         2.0598514402        1.6655949875       18.3504043815
  C         1.9511846137       -0.4827650889       17.7566771313
  H        16.1015663579        3.4101960920       23.0747663261
  H        16.8722650027        3.1532944100       21.6774863506
  C        17.6129865917        1.8547252284       23.1314004145
  H        10.7419343063        8.9755819619       13.4231877706
  C        11.4198671447        7.5617081595       12.0694135531
  H         3.6762225688       -0.4174086136       38.2947169044
  H         3.9125245517       -1.9340646192       37.3171684417
  C         5.7021542700       -1.0727693976       38.1163922208
  H         1.7725071454       -0.4638537529       16.6920569100
  H         1.0187818536       -0.4873672533       18.2291336518
  C         2.6006081806       -1.7589656016       18.2073432502
  H        17.7559877793        0.9855418292       22.5734557888
  H        18.5301975361        2.3787050029       22.9593620894
  C        17.5205577590        1.6475414653       24.5846488258
  S        11.8852399510        6.0251917419       11.6189190047
  C        11.5994913334        8.6374970962       11.0277749556
  H         6.2422155951       -1.8542808250       37.5860235605
  H         6.2131979086       -0.0664048818       38.0691715585
  H         5.5634690901       -1.3611956286       39.1625405116
  H         3.5385723392       -1.8863030991       17.6277295058
  H         1.9441964223       -2.6101611944       18.0655448158
  H         2.8558597878       -1.6479354645       19.2792095379
  H        18.3495831630        2.1744252578       24.9643323027
  H        17.5977619175        0.6374988620       25.0112279121
  H        16.5496511635        2.0665231719       24.7356935043
  C        12.3998710375        6.7267645873       10.1025312136
  N        12.1218736645        8.0505638652        9.9464027858
  O        11.2669268404        9.8382199206       11.0681281101
  S        13.0409470013        5.7717943342        8.7233874089
  C        12.3244330811        8.8520784679        8.7861276209
  H        12.8119132325        9.7957645860        9.2394419841
  H        13.2048742165        8.5055920784        8.1510091685
  C        11.0191534522        9.1199966915        8.0639199329
  H        10.1270578861        8.8763869868        8.6015202013
  H        10.8584474907       10.1735219763        7.8050814858
  H        11.0467311268        8.4761424639        7.1710984861
  H         2.5561025252        3.5914866743       12.2233925358
  C         3.0548554459        2.6135701720       12.4205778222
  H         2.5752197076        1.8657679582       11.7422836719
  C         4.5157633593        2.6590244302       12.0447007260
  C         2.9623875162        2.1412611999       13.9209393401
  C         4.6793145914        2.8716821417       10.5031565178
  H         5.0703148335        1.8095520640       12.3990794358
  H         5.0247571802        3.4596269521       12.5523126756
  H         3.3519946711        1.1737262205       14.1664908904
  H         2.0181520148        2.3425096251       14.3616136047
  H         3.6534654042        2.8383562007       14.4213115294
  C         4.8680614566        1.5590491910        9.7538192391
  H         3.7850648175        3.3980407313       10.0745147152
  H         5.5471127756        3.5584584152       10.3526257564
  C         5.5119013112        1.7511042259        8.3604605940
  H         3.9431155495        0.9733933882        9.6341429782
  H         5.5165380949        0.8872031143       10.4184645345
  C         6.8142476234        2.5855911184        8.2550319195
  H         4.6964128229        2.3003051168        7.8354610949
  H         5.5440162304        0.7235587686        7.9312948241
  C         7.9777755799        1.6558687914        8.6600936771
  H         6.9902239239        2.7045909657        7.2475977593
  H         6.9264774467        3.5005477660        8.7493929584
  C         9.2490119438        2.4887464242        9.0715123651
  H         8.2028281624        0.9105979576        7.8798962802
  H         7.6458991288        1.0910585501        9.5544304207
  C         8.9973065901        3.8347518482        9.8818963036
  C         9.6360339299        3.2554570318        7.8395991604
  C        10.3284580850        1.6646177153        9.6358963917
  C         9.2830167653        4.9407315076        9.0285691428
  C         8.4724332567        4.2193254628       11.1212090212
  C         9.7310158908        4.5700745592        7.7823944576
  C        10.0883859412        2.6668891744        6.6303673962
  H        10.0236557173        1.2116693055       10.5288915877
  H        10.5882922164        0.9000321809        8.9271702895
  C        11.5713680283        2.4672517114        9.9862765040
  S         8.9315761096        6.4623918187        9.8541256155
  C         8.3724439511        5.6108562125       11.2159836486
  H         8.1132371508        3.5106824226       11.7977815874
  C        10.0598786621        5.2355148672        6.6002123400
  H        10.3014564180        1.6254130461        6.5761887434
  C        10.4809272915        3.2660250223        5.5103177544
  H        11.3789925658        3.4764925439       10.3883630196
  H        12.0072979883        2.6633671108        9.0447631256
  C        12.4218022105        1.8660883974       10.9999297261
  C         7.8649990124        6.3053193099       12.4345386452
  C        10.4233970206        4.6470947928        5.4154210529
  H         9.9291219816        6.3147316273        6.5091014713
  C        10.8953044745        2.8743114420        4.2428169561
  H        13.2607618514        2.4984172570       11.0159736550
  H        13.0179417511        0.9882923401       10.7064398682
  C        11.7828948708        1.7048879355       12.3620918488
  C         7.8960643004        7.6850853137       12.6665145923
  C         7.3387559993        5.5208019316       13.6165152299
  C        10.7969946472        5.3807934746        4.1374158726
  C        11.0451093048        4.0262908228        3.4185073788
  S        11.1626315047        1.3197953812        3.4619955725
  H        10.9779365896        2.4322952304       12.4134426794
  H        11.2490301227        0.7423159358       12.4829544045
  C        12.8083988227        2.0297850112       13.3738651767
  N         8.1695481133        8.6581948168       11.6656512419
  C         7.6481804803        8.2590209636       13.8981392384
  C         7.1292452148        6.0560576674       14.8753869132
  H         7.2898019220        4.5036789395       13.4620302081
  C        12.0499087311        6.2658146128        4.3545206006
  C         9.7025598495        6.1380457115        3.3909984820
  C        11.5579665836        3.5768330874        2.1782689469
  C        11.6583503643        2.1938059971        2.0255258336
  H        13.1744483466        3.0411868823       13.2281646446
  H        13.6511784248        1.2370858513       13.2871945474
  C        12.1513976400        2.0505922783       14.7252454052
  S         8.1387330985       10.1712929289       12.2542243537
  N         7.7149402288        9.6811341187       13.8073134863
  C         7.3995893758        7.5112839005       15.0930908486
  H         6.9208600120        5.3779906332       15.7012288991
  H        11.8756819707        6.8175942939        5.2706151726
  H        12.0574213235        6.9211190913        3.4970427715
  C        13.3988709921        5.5962194530        4.5289744805
  H         9.1486978573        6.7794443253        4.0244041435
  H        10.1368382978        6.7940433752        2.6388523955
  C         8.5060827182        5.2623468620        2.8422024143
  H        11.7302324034        4.3129002531        1.4261304506
  C        11.9416788952        1.4188936569        0.7647072041
  H        11.9274996409        3.0645862306       15.0575995703
  H        11.1325435768        1.5435655940       14.7268501496
  C        13.1084970676        1.3334257673       15.7345762848
  C         7.1863586565        8.2297916566       16.3572165224
  H        13.3076778204        4.6822428510        5.1158870512
  H        13.6437969535        5.2014323537        3.5737876428
  C        14.4823270618        6.4962939537        5.0428004750
  H         8.0106441105        4.6325023700        3.5750503673
  H         8.8934952353        4.5918727992        2.0487520868
  C         7.4889087460        6.2741206823        2.1965161694
  C        11.9794571839        0.0259401057        0.6628400009
  C        12.2203680121        2.1833434801       -0.4859688182
  H        14.0643369901        1.7603149227       15.6629034525
  H        13.1206419154        0.2676212177       15.4906591053
  C        12.6251018675        1.3532319380       17.1849376849
  H         7.3398105206        9.2369252148       16.3006918294
  C         6.8868288342        7.8689547369       17.6264362310
  H        14.2139200077        6.8634098540        6.0379572096
  H        14.5980426853        7.3507456999        4.3122158670
  C        15.8589270208        5.8073936927        5.1110273898
  H         6.8499497236        6.7767842950        2.9087239413
  H         7.9401652392        7.1279006562        1.7551349530
  C         6.5327791467        5.6155669744        1.2424992635
  N        11.6141706043       -0.9062178901        1.6452812347
  C        12.2993767950       -0.5591432688       -0.4937780321
  C        12.3929392033        1.5304978331       -1.7156278085
  H        12.1480245180        3.2724932226       -0.4481096404
  H        12.9762336300        2.2895182961       17.6799579354
  H        12.9308032157        0.4447711642       17.7444715383
  H        11.5335894147        1.2801468166       17.2393275381
  S         6.6007974517        6.2807072034       18.1842665440
  C         6.8644853322        8.9547872800       18.6475201179
  H        15.6910795309        4.6971464851        5.1011722727
  H        16.4706499799        6.1481153924        4.2700766671
  C        16.5666997455        6.0297665025        6.4272742562
  H         6.3875597202        4.5145436568        1.4543973294
  H         7.0785436664        5.6899730772        0.3084505760
  C         5.1648846860        6.3483687193        1.0580999760
  S        11.7196972332       -2.4328040639        1.0604636928
  N        12.2242261385       -1.9449195320       -0.4221054755
  C        12.6424934430        0.0651805582       -1.7061703635
  H        12.4285117307        2.1393990448       -2.6455320368
  C         6.3181431795        7.0999351046       19.7168720247
  N         6.4316584054        8.4615199952       19.7663944838
  O         7.0639213986       10.1717871481       18.4356475690
  H        16.9655946712        7.0128315634        6.3495720237
  H        15.8889077725        6.0522025871        7.2349522003
  C        17.5786436458        5.0321100213        6.7564601680
  H         4.5465103020        5.8918589087        0.2605612887
  H         4.6165111600        6.3988304270        1.9561581332
  C         5.3324698134        7.7425893593        0.3910384516
  C        12.9467760467       -0.6014981552       -2.8844767789
  S         5.9222508669        6.1998587982       21.1736424037
  C         6.3877421635        9.2171006533       20.9759397892
  H        17.0609484859        4.2156573308        7.2625590842
  H        18.0081487982        4.5582695991        5.8541284929
  C        18.7953696835        5.6653165366        7.5371958054
  H         5.2446675656        7.6205653285       -0.6521320871
  H         6.3102371985        8.1449553296        0.6928766350
  C         4.3300865897        8.7601405535        0.8951332569
  H        12.7907266068       -1.6284559249       -2.7255293662
  C        13.4651327598       -0.2273234886       -4.0999931021
  H         5.5339720494        8.8552527065       21.5827585796
  H         6.1462360363       10.2717813373       20.8006019819
  C         7.6122259611        9.0883498880       21.9687530074
  H        19.0489419062        4.9909348877        8.3142203808
  H        18.6192691087        6.5890605400        8.1170550904
  C        20.0597787758        5.9056343742        6.7605492053
  H         4.6745485177        9.7511680801        0.6088258281
  H         3.3077620911        8.6951702151        0.4662903685
  C         4.3228836407        8.9469167422        2.4249030285
  S        14.0290155464        1.3098508211       -4.6045762523
  C        13.5325481325       -1.3303401663       -5.0605793866
  H         8.2543503786       10.0100804539       21.9519479142
  H         8.2255197761        8.3321487394       21.5283773716
  H         7.3312298408        8.7772033481       22.9748405672
  H        19.9736905334        6.6869526428        6.0594547010
  H        20.8667800205        6.1931400233        7.4419284343
  H        20.4236934446        4.9266349171        6.3176938473
  H         4.0702302585        9.9497177065        2.6530791737
  H         3.4751196785        8.2593633208        2.7093228164
  H         5.3262523675        8.7749758951        2.8354051306
  C        14.5971292421        0.5199183049       -5.9679811954
  N        14.2784396372       -0.8234674451       -6.1044399490
  O        12.9378125889       -2.4006909903       -4.9105854858
  S        15.1533403203        1.3076225838       -7.3436855674
  C        14.2893476949       -1.5922390117       -7.3187471485
  H        14.3674996376       -2.7137204830       -7.1305898396
  H        15.1353675159       -1.2603430763       -7.8625015202
  C        12.9442379580       -1.2208323344       -8.0997039534
  H        12.0539464659       -1.2755275675       -7.4701125767
  H        12.6447077415       -1.9971407626       -8.7906008595
  H        12.9959503066       -0.2085178826       -8.6441470540
