352
 i =    31500, time =    15750.000, E =       100.1466929442
  H        10.0815081857        4.5487665272       32.2012493384
  C        10.2390634750        5.6145847557       32.5136890189
  H         9.2735372463        6.0256570980       32.8839980717
  C        10.6553612893        6.5960230830       31.3741759666
  C        11.1940184599        5.6006851376       33.5966659613
  C        11.1215680597        5.9229041331       30.1207943500
  H        10.0088561599        7.3929614194       31.2675761130
  H        11.5255408581        7.1198039622       31.7308535641
  H        11.0169347787        4.8965822982       34.3114738880
  H        12.2764587730        5.3431062367       33.3268537165
  H        11.1108094656        6.5492792869       34.1636673026
  C         9.8348950695        5.5965260156       29.2915278268
  H        11.5366213686        4.9243473891       30.4403794847
  H        11.9714390280        6.3918018018       29.5474047909
  C        10.2633299337        5.4778630614       27.7825906161
  H         9.3405911971        4.6820845051       29.5996463805
  H         9.1354725134        6.3612608019       29.5514732261
  C         9.3099300260        4.8623578937       26.8583959028
  H        11.0721996082        4.7578876890       27.7400204065
  H        10.5407402909        6.4654750912       27.3879539499
  C         8.0889989796        5.7461178623       26.4859994638
  H         9.7539403866        4.4215323157       25.9767446372
  H         9.0388320225        3.9241406172       27.3465331832
  C         7.0078301072        5.0807919854       25.5769764955
  H         7.5767984042        6.2070867835       27.3657853529
  H         8.4560490446        6.5754331608       25.9352694162
  C         6.5347900164        3.7268627226       26.2167770141
  C         7.5195947746        4.3067809274       24.3105704808
  C         5.8351321108        6.1220565528       25.3587487351
  C         6.8740509511        2.6259163316       25.4550182757
  C         5.9336415485        3.3258450759       27.4592838804
  C         7.4262026534        2.9835294446       24.2287865242
  C         8.0354691731        4.8960432242       23.1489540941
  H         6.2620870767        6.9352829868       24.7805903374
  H         5.4408598329        6.4688676033       26.2600716585
  C         4.6627137800        5.7038467444       24.4532087517
  S         6.4179693373        1.1543541327       26.2322614552
  C         5.8315124295        1.9744871983       27.6154077395
  H         5.5946062005        4.0297949597       28.2289295867
  C         7.8334980629        2.4012867421       23.0522796510
  H         8.1260102594        5.9494507267       23.3187480406
  C         8.3995986205        4.2683923603       22.0021876779
  H         5.0874164494        5.7523772307       23.5043161210
  H         4.3819115670        4.6809813171       24.6475849170
  C         3.3514961065        6.5562376597       24.5396470179
  C         5.3885687491        1.2878414273       28.8867882178
  C         8.3804547155        2.9988108824       21.8906871610
  H         7.7691170350        1.3038277942       23.1870801411
  C         8.8564882720        4.6842519748       20.7611547363
  H         2.5099908760        6.0422389440       23.9715883093
  H         3.4853298045        7.5189437105       24.0739287427
  C         2.6765869722        6.6785836528       25.9945225015
  C         5.3668418607       -0.1245148078       29.1167473927
  C         4.9916447214        2.1826179056       30.0373649298
  C         8.7631634817        2.3260996511       20.5932530961
  C         9.0614467817        3.6317129221       19.9425633444
  S         9.1978182967        6.2214851968       20.0296646642
  H         2.1354665363        7.6417566960       26.0911100782
  H         3.4524515589        6.7456897503       26.7684390571
  C         1.8489384127        5.4251233037       26.3289314956
  N         5.6070772489       -1.0242029673       28.0851706469
  C         5.1585687143       -0.6323677815       30.3662150401
  C         4.7028955040        1.6614741855       31.2939325889
  H         4.7739016384        3.2872875994       29.9133736163
  C         7.6109257046        1.5716257025       19.8402119542
  C        10.0157561745        1.4791485213       20.6856637150
  C         9.5375729836        3.9941246446       18.6630181731
  C         9.6251003391        5.3539841595       18.5662534532
  H         1.1267546744        5.2741867553       25.5526846242
  H         2.5940676186        4.5992226758       26.4017408668
  C         1.1158719877        5.4388140234       27.7148833398
  S         5.9180892307       -2.4457782970       28.8141441364
  N         5.2688611762       -2.0385522417       30.2901753915
  C         4.9295086765        0.2084723551       31.5464220939
  H         4.4571896423        2.4053156039       32.0754748534
  H         7.2641407988        0.7024644329       20.4066968991
  H         8.0902685644        1.1656632479       18.9114439108
  C         6.3836934329        2.4693711348       19.3864323570
  H        10.3741035181        1.1114095047       19.6943801289
  H         9.8853012681        0.5377264722       21.2535141566
  C        11.2042327275        2.3315000060       21.2083565315
  H         9.6869127548        3.1801382008       17.8729377497
  C         9.9356032654        6.1249254267       17.3192774905
  H         0.5094722446        4.5224003753       27.7676069108
  H         0.4377401552        6.3281174861       27.8136544768
  C         2.0646028584        5.3781480276       28.9128159342
  C         4.7550396542       -0.4978256615       32.8219489858
  H         6.6628214440        3.2547464462       18.6843179002
  H         6.1560574290        3.0026504995       20.3530049461
  C         5.2379339700        1.5868914833       18.8061316088
  H        10.9629304222        2.9015594018       22.1074414545
  H        11.4995301182        3.1007364422       20.4609527582
  C        12.3579796701        1.4064297906       21.6752852272
  C        10.0544855413        7.5589532386       17.1979248776
  C        10.1628873235        5.3752692814       16.0504583050
  H         2.5962218837        4.4939604922       28.9138955419
  H         2.8626760725        6.1166371137       28.7995313744
  C         1.2391805407        5.4519594521       30.1903938916
  H         5.1292231915       -1.5064623174       32.7616276755
  C         4.4965447804       -0.0535831514       34.0774153454
  H         5.0498564583        0.8433605507       19.5705938651
  H         5.6407142323        1.0245015603       18.0134983095
  C         4.0048971086        2.3295988844       18.3133714176
  H        11.9738050868        0.9627664562       22.6000503143
  H        12.4665744262        0.5549057114       20.9655790238
  C        13.7087005342        2.0249827175       22.0198400601
  N         9.7769437239        8.4606672224       18.2071312027
  C        10.3950145676        8.1914833429       16.0147973052
  C        10.3931247452        6.1080143160       14.8357753537
  H         9.9327428867        4.2959745145       15.9052503653
  H         0.3182828281        4.8929410948       30.0852188714
  H         1.8773331153        4.8818945805       30.9015268569
  H         0.8396622203        6.4581579104       30.5450941721
  S         4.2799413341        1.6135638739       34.5845416285
  C         4.4321943040       -1.0290223044       35.1817631114
  H         3.6746175644        3.0012795964       19.0974989101
  H         4.2422661960        3.0998240897       17.6146500654
  C         2.7930933664        1.4606274706       18.0730235975
  H        13.8699500431        2.9667661028       21.4575018248
  H        14.4618217682        1.3069059873       21.8398707462
  C        13.8091240391        2.5533692088       23.4393798974
  S         9.9057268996        9.9828803584       17.6734484848
  N        10.5193688150        9.5899089419       16.2637339692
  C        10.6932558203        7.5619870842       14.7953946165
  H        10.6526496774        5.5824502296       13.9629145538
  C         4.0446090396        0.9689247272       36.1942190772
  N         4.0558480326       -0.3703326093       36.2984899218
  O         4.7391206627       -2.2299248125       35.0607241309
  H         1.9085004375        1.9517523305       17.7903386856
  H         2.5312947686        1.0645795765       19.0039808184
  C         2.8427925714        0.2537219559       17.0928832945
  H        12.9606084614        3.2165070330       23.4650309159
  H        13.6410307453        1.7081488917       24.1279161446
  C        15.1223228754        3.3748891258       23.7018231433
  C        10.9873484627        8.4245171727       13.6921246441
  S         3.4402783303        1.9677945306       37.5529335468
  C         3.7969194284       -1.0931592747       37.5595825099
  H         2.4695527384        0.5812264963       16.1308482419
  H         3.8608761854        0.0032042789       16.8375577908
  C         2.1448995875       -0.9723772770       17.6611193868
  H        14.8815906858        4.0114155430       24.5450711282
  H        15.3407893958        3.9389660371       22.8503928162
  C        16.4242529934        2.6118647815       24.0039636828
  H        10.6678559173        9.4387654818       13.7593577879
  C        11.5531859682        8.1419753346       12.5212073642
  H         2.9123882186       -0.6356198346       38.0037617213
  H         3.5839751285       -2.1316130478       37.4909860305
  C         5.0625364979       -0.9219030985       38.4755053876
  H         1.1670944335       -0.6984568917       17.9225034272
  H         2.6204752755       -1.4555921291       18.5678184710
  C         2.0560091715       -2.0768984046       16.7405276845
  H        17.0019182204        3.0652459307       24.8400590023
  H        16.2241817435        1.5494251581       24.2834481416
  C        17.4026346653        2.6010686675       22.8043637499
  S        12.3279493304        6.6276962350       12.1353558941
  C        11.6467905157        9.2071442291       11.5278000446
  H         5.0987539714       -0.0112164935       39.0480457505
  H         5.2060498534       -1.7498767331       39.1400813968
  H         5.9895388891       -0.8444218693       37.8455994363
  H         1.4218088921       -1.8617087378       15.9276616232
  H         1.6607269890       -2.9434691650       17.2241273132
  H         3.0725208769       -2.3117122187       16.4240271015
  H        18.4281353018        2.4279893674       23.0029407950
  H        17.4312619880        3.5866938577       22.3023640719
  H        17.2185555323        1.8453080699       22.0705570229
  C        12.6182395275        7.3890281462       10.5829784846
  N        12.2918609390        8.6889357396       10.4693944030
  O        11.3078817711       10.3576266958       11.7464234151
  S        13.3618428649        6.5414321599        9.1822094885
  C        12.4799237962        9.4776931113        9.2684400846
  H        12.5105812881       10.5457362698        9.5456191496
  H        13.3842474151        9.1421558395        8.8298620068
  C        11.3514067034        9.2350027828        8.2781617581
  H        11.2421632765       10.1379770748        7.6160181283
  H        11.5551973719        8.4597669886        7.5971785330
  H        10.3324567514        9.0420068852        8.7524291752
  H         3.3276027278        1.1229550914       13.8731369881
  C         4.0417991823        1.8820897494       13.5130043328
  H         4.9596769811        1.3065271333       13.2687206396
  C         3.4172303682        2.5421280865       12.2473513501
  C         4.4368961147        2.8060848334       14.6428260116
  C         4.4067909225        2.8652153803       11.1785203081
  H         3.1138729433        3.5123392405       12.6794035879
  H         2.4244999783        2.1930812909       11.8571134699
  H         3.6409584978        3.0077727693       15.3895993268
  H         4.5327350706        3.8629071968       14.2614190889
  H         5.2653136364        2.3631628800       15.2074371043
  C         4.9056784830        1.5741100854       10.3877349125
  H         4.1594256251        3.7082218361       10.5731461676
  H         5.2498176825        3.3903836580       11.6674630190
  C         5.5661216684        1.9269010942        9.0021435830
  H         4.0485245686        0.9355053337       10.1540701869
  H         5.5545255267        1.0063998030       11.1038314988
  C         6.8073532594        2.8303345565        9.1749287567
  H         4.8040349961        2.4326282275        8.3930927027
  H         5.8428217609        0.9924705717        8.4851278497
  C         8.0508125697        2.0290680373        9.3729712675
  H         6.9697077623        3.4135564901        8.2885712468
  H         6.5589956619        3.5077800163       10.0174076040
  C         9.4121188868        2.8891324984        9.4241178787
  H         8.1781939902        1.3384279923        8.5439809372
  H         7.9331946568        1.4512135289       10.3159225142
  C         8.9583616342        4.1907303715       10.0758590971
  C         9.7787552252        3.5247422467        8.1600755166
  C        10.5414960299        2.2100322960       10.2630408897
  C         9.1336416949        5.2532217519        9.2671583529
  C         8.5300013392        4.5110259447       11.3467837307
  C         9.5472184679        4.8413495326        7.9962146755
  C        10.2523185248        2.8843116235        7.0115184301
  H        10.1683442563        2.1030767306       11.2464162569
  H        10.8700371493        1.2090975456        9.8231563380
  C        11.8601397005        3.0669153141       10.3697829285
  S         8.6461686758        6.7478577195        9.8692912730
  C         8.2349754897        5.8917387360       11.3617523571
  H         8.4457397499        3.7285764420       12.1251263459
  C         9.8371877441        5.3730321586        6.7845028661
  H        10.2886722387        1.8882324131        7.1747479759
  C        10.4672482096        3.4306227408        5.7776692176
  H        11.5708712325        3.9897693503       10.6975736333
  H        12.4127084795        3.2069921030        9.4079162237
  C        12.8173472118        2.5780083165       11.4494750724
  C         7.7165691472        6.5905775561       12.5658134806
  C        10.2329367951        4.7537209755        5.5986827300
  H         9.8409730316        6.4627509366        6.6795803765
  C        10.6828310104        2.8871223036        4.5217893031
  H        13.8199668350        2.8536014801       11.4983550594
  H        13.0261217368        1.4898431304       11.2022608596
  C        12.2135092615        2.7024848171       12.8729041660
  C         7.8820357625        7.9512654332       12.8785193769
  C         7.2413924643        5.7242659553       13.7121074460
  C        10.5518930984        5.3952899351        4.2749596537
  C        10.8060701835        3.9857772033        3.6581177103
  S        10.9647633380        1.3482211079        3.8254700921
  H        12.2843279207        3.6796655604       13.3552433076
  H        11.1768842514        2.3890171188       12.8452323935
  C        12.9830013634        1.8251982650       13.8803513822
  N         8.3515228775        8.8706899686       11.9410239219
  C         7.5225418313        8.5066301802       14.1065556143
  C         6.8451157323        6.1841450741       14.9333331889
  H         7.1875355534        4.6790490165       13.5610310345
  C        11.8884077134        6.2394900357        4.4357068202
  C         9.3286274123        6.1010227678        3.6707767287
  C        11.2514384834        3.5145555189        2.4162525695
  C        11.3188849523        2.1561487326        2.3859586912
  H        13.5784090603        2.5126509828       14.4279902086
  H        13.6065406248        1.1172113349       13.3166338562
  C        12.2659908371        0.9364157937       14.9105082299
  S         8.1076430783       10.3987188562       12.5789649734
  N         7.7148041776        9.9251419711       14.1325976272
  C         7.0236998982        7.6816657270       15.1778391032
  H         6.4404430804        5.4800559927       15.6634738126
  H        11.7599451368        7.0927333259        5.1029033298
  H        12.2338819388        6.5907326829        3.4497543775
  C        13.1188715085        5.3847928766        4.9546433062
  H         8.9206612660        6.7443877998        4.4741098631
  H         9.7876160865        6.7387743010        2.8796016935
  C         8.1300998236        5.1955814675        3.1558092914
  H        11.5760926218        4.1802688107        1.7047313788
  C        11.7132018126        1.4055809594        1.0970511482
  H        11.3702547361        0.4871886949       14.4129795387
  H        12.9731635910        0.1087114084       15.2762844897
  C        11.8135066167        1.6689930883       16.1862804657
  C         6.7908244020        8.3119617902       16.4465472715
  H        12.8652720519        4.7861190091        5.8000073092
  H        13.3902882684        4.6288197527        4.1489777687
  C        14.4468478579        6.0795298377        5.2846308194
  H         7.6308802371        4.5593558998        3.9053632242
  H         8.5656953280        4.4662454893        2.6142498743
  C         7.1809289094        6.0360673505        2.2681893512
  C        11.7957981904        0.0123919168        0.9326949977
  C        11.9215622391        2.1645098526       -0.1317692436
  H        11.0968196798        0.9784254762       16.5893760962
  H        11.1070615147        2.4045811806       15.9521146279
  C        12.8621641868        2.0959175736       17.2042902041
  H         7.0489693945        9.3621178298       16.3287885001
  C         6.5745523674        7.7663964292       17.7020302399
  H        14.2902620081        6.8481886395        6.0313050270
  H        14.8724384779        6.6499688327        4.4705705947
  C        15.4783446322        5.1644794674        5.9104566466
  H         7.8083485135        6.8680019046        1.7992852499
  H         6.8503057342        5.3499257990        1.4860986693
  C         5.9044224372        6.5670476186        2.9386121256
  N        11.5535645428       -0.9551292201        1.9330041648
  C        12.2388900989       -0.5909040714       -0.2451955558
  C        12.1777822255        1.5357444170       -1.3682198083
  H        11.8158614233        3.2275322777       -0.1787269007
  H        12.4274251726        2.8351683999       18.0434874598
  H        13.6381947592        2.6108121134       16.8089517774
  H        13.1833102019        1.2656873261       17.7630546174
  S         6.2273097785        6.1591437058       18.1010934685
  C         6.3762589885        8.6859339088       18.8348034928
  H        15.0399953459        4.5332464958        6.7279480619
  H        15.9725779314        4.6323245194        5.1382605138
  C        16.5021776625        6.0316184432        6.6029697861
  H         6.2670509684        7.4892754281        3.4117727157
  H         5.6094978078        5.7938400876        3.6048879586
  C         4.9066482210        6.9040745819        1.8972445390
  S        11.6786777045       -2.4094621949        1.2940186514
  N        12.1762441535       -2.0037176132       -0.1731862541
  C        12.4133238123        0.1023807991       -1.4466080317
  H        12.1387339592        2.1496315959       -2.2115031545
  C         5.9671808261        6.6673213657       19.7578512158
  N         6.0500892746        8.0584962491       19.9688058070
  O         6.3634037887        9.9206231928       18.5925148369
  H        16.9309081173        6.8576460467        6.0161553440
  H        15.9325795010        6.5215287857        7.3899439942
  C        17.6072245279        5.2688221633        7.3223323715
  H         5.5116028805        7.4459924088        1.1165080766
  H         4.5546790265        5.9310026510        1.4687765036
  C         3.8151616341        7.8254731528        2.5150180103
  C        12.6886646417       -0.5595068509       -2.6904589726
  S         5.1711176981        5.6668997645       21.0051867136
  C         5.8208249887        8.7170222983       21.2760547505
  H        17.3682106124        5.3148115228        8.3824564467
  H        17.5454427490        4.2260484871        7.0379774486
  C        19.0224709465        5.7493313647        7.2561940160
  H         3.9638229602        7.8276251996        3.6433022450
  H         2.8063153608        7.3908005437        2.4190206144
  C         3.8077343419        9.3558410390        2.1862975058
  H        12.4151070304       -1.5954868625       -2.6710544201
  C        13.3006346764       -0.1759334774       -3.8305333842
  H         5.4030858074        7.9528588574       22.0094168591
  H         5.1005261114        9.5571121790       21.0497431012
  C         7.1984518609        9.1996878124       21.9123220524
  H        19.6024735992        5.2221298961        8.0643775612
  H        19.0744535493        6.8569574888        7.4306748233
  C        19.5491552298        5.3979907522        5.9018134750
  H         2.8023485495        9.7260562745        2.5905321904
  H         4.6522457232        9.8505857443        2.5525932095
  C         3.7397204897        9.6757045899        0.6561392832
  S        13.9283301358        1.4154411142       -4.1091929092
  C        13.3894087644       -1.1102185375       -4.9338759923
  H         7.2470446600        8.9590157120       22.9902327539
  H         7.3119361605       10.3165264438       21.9110761280
  H         8.1044073888        8.8281367312       21.4597631640
  H        20.1725326186        4.4759601513        6.1185113255
  H        18.6905418543        5.2414147249        5.2119692169
  H        20.1715161124        6.0631954350        5.4385428983
  H         3.6431794064       10.7973637916        0.6730077450
  H         4.5772353358        9.3527784585        0.0602166470
  H         2.8795799762        9.1975197708        0.2145779725
  C        14.3993381618        0.7968262867       -5.7057846986
  N        14.0988709422       -0.5097179896       -5.9259552533
  O        12.8960692586       -2.2875267597       -4.9637313670
  S        15.2193233337        1.7719619232       -6.9586055864
  C        14.3316845129       -1.2060717236       -7.1342767797
  H        14.7152365816       -2.2617699982       -6.9871934676
  H        15.1906745612       -0.7686402890       -7.5455152380
  C        13.2218016454       -1.0058336759       -8.0517528587
  H        12.2768891884       -0.7682425255       -7.5978739697
  H        12.9949305382       -1.9909850201       -8.4712944789
  H        13.6973339954       -0.2930047680       -8.7728279949
