352
 i =    68900, time =    34450.000, E =        99.9973694233
  H        12.0501762044        7.2463896919       31.9315977188
  C        11.5739846091        6.3029983963       31.9582391011
  H        12.2857958965        5.5050764227       31.7559996946
  C        10.5131032796        6.2228976706       30.9006123690
  C        11.0470072955        6.0621465672       33.3243124524
  C        11.1251583805        6.0845000637       29.5223020452
  H         9.9391172739        5.2860538689       31.1429343772
  H         9.8235155514        7.0791481983       30.9941101291
  H        10.0577571696        6.5657108718       33.3590226254
  H        10.9887324491        4.9684500716       33.4240689991
  H        11.7194926895        6.5663346689       34.0464291012
  C        10.0547362673        6.1307196368       28.4276427653
  H        11.6772454323        5.1736693812       29.4959371915
  H        11.8111198170        6.9604341086       29.4716175718
  C        10.5885579779        6.1657505774       26.9595359686
  H         9.4392393453        5.2426539844       28.5869091759
  H         9.4359200701        7.0030612232       28.6852170111
  C         9.7069722231        5.3702010032       26.0096614879
  H        11.5200876167        5.5516399079       27.0945342958
  H        10.8879547554        7.1119540634       26.5490088521
  C         8.4131916036        6.1514826161       25.8464673288
  H        10.1921758301        5.1027119936       25.0890210364
  H         9.5163198020        4.4864849871       26.6420844794
  C         7.2068004341        5.4468512986       25.1109830283
  H         8.0840097173        6.5848763969       26.8550360784
  H         8.5233395570        7.0994340326       25.3514624866
  C         6.8010487820        4.1001964917       25.8346471024
  C         7.6744918848        4.6889028978       23.9629065429
  C         6.0655702298        6.3350514629       24.8517803018
  C         7.1192397286        2.9841176005       25.1060839470
  C         6.1578769785        3.7843199917       27.0203204414
  C         7.6781624547        3.3472482835       23.9071334845
  C         8.1929736907        5.2571346342       22.8679928382
  H         6.4784590779        7.1275764755       24.2255319084
  H         5.9221279660        6.7702505672       25.8161218849
  C         4.7917376956        5.6091385908       24.4232698454
  S         6.7087852489        1.5362592110       25.8917959720
  C         6.1678444691        2.4279986073       27.2162630108
  H         5.7781561255        4.6111710934       27.6317034847
  C         8.1346371153        2.6906390403       22.8090744688
  H         8.3125770850        6.2801378202       22.8716098828
  C         8.6340122172        4.6061953874       21.7004517631
  H         4.6935161994        5.3177119221       23.4274262480
  H         4.5695412703        4.6583595483       24.9911677062
  C         3.5214474977        6.2697405289       24.8038845906
  C         5.7584016859        1.7515559691       28.5154656525
  C         8.5984154035        3.2744659715       21.6214192108
  H         8.2420649123        1.6118765992       22.9709730181
  C         9.0604738840        5.0061990260       20.4734909124
  H         2.7903883018        6.2473993987       24.0454246287
  H         3.7002988875        7.3237533131       24.5682567233
  C         3.1251639581        6.2425932375       26.3030723797
  C         5.7007063073        0.3359955531       28.7508964355
  C         5.2955890821        2.5452938415       29.6514270782
  C         9.0083870489        2.5790542016       20.3505236627
  C         9.3606248426        3.9418338358       19.6871718108
  S         9.4538761888        6.5462982083       19.8209374954
  H         2.7207915415        7.1822312499       26.6143363950
  H         3.9688575861        6.1491017333       27.0061053552
  C         2.3362875429        5.0673775039       26.8146775090
  N         5.9630005801       -0.5658792283       27.8041910640
  C         5.4824402888       -0.2776009900       29.9629794711
  C         4.9956888695        1.9427923268       30.8732884091
  H         5.2997169129        3.6076747985       29.5455550986
  C         7.7808037582        1.8507499692       19.6859965084
  C        10.2754010911        1.6691896001       20.4930699397
  C         9.8611820941        4.3378282052       18.3902783424
  C         9.9005259534        5.7040761964       18.3100274506
  H         1.5033407958        4.7635898319       26.1649504407
  H         3.0459345992        4.2603857623       26.9454278276
  C         1.4734976142        5.2564494800       28.1073514356
  S         6.1059061920       -2.1127871869       28.4555235903
  N         5.6993128239       -1.6642308533       29.9585092531
  C         5.1016572164        0.4217514326       31.1301231442
  H         4.6821901630        2.5946775364       31.5879946510
  H         7.6269863916        0.9486232345       20.2628648360
  H         8.0893020725        1.5627231103       18.7006128457
  C         6.5068216121        2.6364635544       19.5081047819
  H        10.5003852329        1.1202443007       19.5598948793
  H        10.0142275666        0.8789995657       21.2497633093
  C        11.5644420442        2.4379231352       20.9976169401
  H        10.1800056895        3.5887003866       17.6564370150
  C        10.2494154720        6.4780381358       17.0626348100
  H         0.6977522288        4.4919922729       28.2490721468
  H         0.9303257143        6.1795806109       27.8612077092
  C         2.3734007200        5.3588935142       29.3394568536
  C         4.8984988405       -0.3199961434       32.3841874617
  H         6.7724193262        3.4785437388       18.8463798177
  H         6.1226763435        3.0083114598       20.4221414578
  C         5.4676668384        1.7770132687       18.7153566263
  H        11.4597984088        2.6417740467       21.9999157348
  H        11.6946056462        3.3866448026       20.5116469081
  C        12.8506174564        1.6013577354       20.8188411623
  C        10.1625475593        7.8795426479       16.8724992763
  C        10.5206795325        5.7132140885       15.7925578274
  H         3.1373770064        4.5190898189       29.2662371653
  H         2.9251301645        6.2650617906       29.4683113616
  C         1.4415914449        5.3166902842       30.5048770439
  H         5.0215716325       -1.3712057458       32.3683214395
  C         4.5781998453        0.1929095522       33.6568438458
  H         5.0279770380        0.9815659822       19.4019879452
  H         5.8026306911        1.1881433419       17.7781655351
  C         4.1351242916        2.3876746462       18.5819560916
  H        12.8404639814        0.8129450203       21.5582809085
  H        12.9070266047        1.1700458935       19.8012166425
  C        14.1812572761        2.3463248486       20.9846748449
  N         9.8321847321        8.7983227043       17.8797183248
  C        10.4708287670        8.5049814739       15.7013315922
  C        10.7890557739        6.3314168444       14.6142953870
  H        10.6251950790        4.6790448619       15.7947654270
  H         0.8276943079        6.2337165410       30.3663689959
  H         0.8864354087        4.4754481840       30.6946131204
  H         2.0544428831        5.4432259717       31.3741816382
  S         4.3019643142        1.8451487009       34.0808267178
  C         4.5751595250       -0.8103696912       34.7223307446
  H         4.0219947361        3.2033307869       19.3219038613
  H         4.1601183149        2.9421940941       17.6761663876
  C         2.8884268472        1.4596345739       18.5808949426
  H        13.8962463889        3.3046308558       20.4826644034
  H        14.8893606552        1.8175113636       20.3847651343
  C        14.5509729576        2.5267643512       22.4468638972
  S        10.0411632914       10.3507672210       17.2861966619
  N        10.4366590201        9.8850356234       15.7585233271
  C        10.7704537327        7.8337893240       14.5160606680
  H        10.9037546414        5.7734606095       13.7147142866
  C         4.0769945854        1.1809832597       35.7304947254
  N         4.2486434321       -0.1495111704       35.8733090360
  O         4.9507361498       -1.9463976599       34.6253020634
  H         1.8985659346        1.9918983894       18.4277718336
  H         2.7695381682        1.0078157244       19.6064414419
  C         2.9736718053        0.3881102923       17.5556448569
  H        13.6238196044        2.7355559768       23.0463479301
  H        14.9252688800        1.5749927373       22.7765400288
  C        15.5185848629        3.6861037319       22.6004082413
  C        11.1512276493        8.6059844966       13.3943006801
  S         3.7057753776        2.0885044421       37.1999910810
  C         4.3336352496       -0.9424948683       37.1374937818
  H         2.9490163261        0.8918399561       16.6231163750
  H         3.9698903223       -0.0741758744       17.6891702571
  C         1.8963197545       -0.7013359495       17.6167378610
  H        15.5804813590        4.0250841748       23.6607572770
  H        14.9906496308        4.5823932528       22.1923490287
  C        16.8811723545        3.4013848949       21.9799983330
  H        10.6522879282        9.5637232373       13.3139836868
  C        11.6062207632        8.2482564987       12.1904436411
  H         3.6609500286       -0.5435201188       37.8608437544
  H         4.0012619351       -2.0039378789       36.9639915896
  C         5.8216070058       -0.8924360158       37.7408235613
  H         0.8997012940       -0.3381710763       17.6760204823
  H         2.0217281615       -1.3923511950       18.5029211092
  C         1.8760837982       -1.6299336185       16.3536171905
  H        16.8935425791        2.8239427884       21.0409687041
  H        17.2456356368        4.3947042951       21.6809457378
  C        17.7882419954        2.8006400483       23.0243579806
  S        12.2156382176        6.6608359306       11.7554526276
  C        11.7797952787        9.3367412629       11.1348217459
  H         6.1950846996        0.1136768755       37.9076766832
  H         5.9422990743       -1.3438209930       38.7441787688
  H         6.4032989548       -1.4405571067       37.0220565366
  H         1.2652534534       -1.1073808824       15.6452923702
  H         1.4477198958       -2.6471515273       16.4786342993
  H         2.9433730108       -1.7630873509       16.0666926740
  H        17.3910246430        1.8545424819       23.3051567459
  H        17.7225761131        3.4630754350       23.8881767841
  H        18.7889925114        2.7220832465       22.6204788267
  C        12.6298885256        7.4345157940       10.1842905376
  N        12.4645970862        8.8132821025       10.1018677536
  O        11.3958027605       10.4512337537       11.2147137007
  S        13.6915559860        6.8401909233        8.9675422414
  C        12.5978403032        9.6099069775        8.9240013945
  H        12.9677051606       10.6483386980        9.1013264563
  H        13.4328680927        9.2558801151        8.2683438132
  C        11.2361972519        9.6481117622        8.1952984520
  H        10.8334370550        8.6676325072        8.1129166478
  H        10.5149183355       10.2426718337        8.7808127453
  H        11.3077468867       10.1072299185        7.1672649878
  H         5.2892639124        1.8963617412       12.5035557798
  C         4.3012020221        2.5224024418       12.5903817360
  H         4.6539560001        3.5869643179       12.6921256790
  C         3.4276158689        2.3953961637       11.3652308981
  C         3.3878032947        2.1721812596       13.6568773607
  C         4.1069424544        2.7365851446       10.0346115812
  H         2.5229090306        2.9732243499       11.5095128901
  H         3.1497973588        1.3598900401       11.2789347924
  H         3.1591262929        1.1220054655       13.3995691708
  H         2.4321013321        2.6132687801       13.6205504204
  H         3.9175659997        2.2224849937       14.6595061292
  C         4.9732196472        1.6335425839        9.4927996587
  H         3.3281804154        2.8274633526        9.2591211373
  H         4.6396024567        3.7195767125        9.9610491849
  C         5.7132360506        2.0929145221        8.2564171985
  H         4.4003518621        0.8036097233        9.0647808561
  H         5.5974939214        1.1957261640       10.2666667307
  C         6.9175469074        2.9443423508        8.5650954737
  H         5.0661575275        2.5085065435        7.5474284528
  H         6.2014396527        1.2692307699        7.6302336614
  C         8.2051930795        2.2089768862        8.9422662091
  H         7.1277602383        3.5525441917        7.6214725585
  H         6.6655596718        3.7839384179        9.2393048985
  C         9.5411424032        3.0554414597        9.0469548878
  H         8.3150150421        1.4959888734        8.1668339761
  H         8.1181032324        1.7021423633        9.9161141134
  C         9.2303037562        4.4076571452        9.8167009790
  C         9.9231472587        3.7868584073        7.8432938214
  C        10.7864971026        2.2717484294        9.6874111955
  C         9.3808426542        5.5134328225        8.9825914257
  C         8.8035486777        4.8634227795       11.1093930178
  C         9.8418558612        5.1419029541        7.7697629939
  C        10.3951028796        3.1389295548        6.6847314648
  H        10.5101068065        1.6975722952       10.5707625481
  H        11.1256489860        1.4132198956        9.1282147297
  C        12.0644610999        3.1373751533        9.9876416227
  S         8.9136677759        7.0402715007        9.6487769311
  C         8.5565455268        6.1990751606       11.1294479157
  H         8.7287964282        4.1862337537       11.9267063625
  C        10.2105296946        5.7663516818        6.6285722640
  H        10.5402506176        2.0843783483        6.7309368777
  C        10.6645530330        3.8203168906        5.5236829737
  H        11.8058081412        4.2046529130       10.3133578025
  H        12.4989590430        3.5005587491        9.0239534767
  C        12.9660233549        2.4580755554       10.9403735060
  C         7.9377561296        6.8631908386       12.3338319183
  C        10.6477011548        5.1596378856        5.4775436351
  H        10.1863890361        6.8405194762        6.6160364618
  C        11.0792062644        3.4510437110        4.2397762239
  H        13.8579657852        3.0406288019       11.0581506802
  H        13.4291340170        1.5530349679       10.6237620206
  C        12.3733196916        2.5150177706       12.3408469803
  C         7.9635811911        8.2732855224       12.6293217447
  C         7.3641988688        6.0095251531       13.3881991158
  C        11.0025043531        5.8793680085        4.2132971735
  C        11.2679192484        4.6135988569        3.4559681776
  S        11.2889436325        1.9855511098        3.4334691591
  H        11.4393036710        3.1199623080       12.3163227484
  H        12.0388835599        1.5186709414       12.5810326810
  C        13.3177966011        3.1361214175       13.3670618057
  N         8.3194675666        9.2477260462       11.6734060894
  C         7.5643825028        8.8444440129       13.8544805453
  C         7.0786014428        6.5142543991       14.6292680888
  H         7.2769092295        4.9525097794       13.2361300016
  C        12.3000318292        6.6670584872        4.3652294786
  C         9.7684756879        6.6005576110        3.6279919361
  C        11.6685716114        4.2691204908        2.0998006556
  C        11.6011259431        2.9225156566        2.0269846389
  H        12.8770965277        4.0459799917       13.7395212794
  H        14.2961381834        3.4980760983       13.0253490027
  C        13.5349040896        2.1681975047       14.5008000462
  S         8.0059139983       10.6981483635       12.3828116976
  N         7.6583110603       10.2370500259       13.9056727377
  C         7.1412317352        8.0058655178       14.9189777893
  H         6.5865916122        5.8679239858       15.3023097071
  H        12.1259988526        7.5873630014        4.8955614403
  H        12.6245577422        6.8287519611        3.3215383971
  C        13.4313069714        5.8533233359        5.1368875614
  H         9.5375725551        7.4357035033        4.3072628347
  H        10.0146396366        7.1553919081        2.6910034647
  C         8.5014131114        5.7094092645        3.3089351575
  H        11.7583989219        5.0583070093        1.3572322764
  C        11.9287150847        2.2190383746        0.7904226516
  H        13.7158056095        1.2557238138       13.9704258528
  H        14.4601381904        2.4706649999       15.0200976196
  C        12.2814888203        1.9947206828       15.3755267205
  C         6.8671595679        8.6649574782       16.1403795724
  H        13.2362891759        5.5908553320        6.0923408211
  H        13.5214828188        4.8789720800        4.6587921594
  C        14.7665868299        6.6126022860        5.2889181122
  H         7.9061583290        5.7517537850        4.2224954927
  H         8.7792986339        4.6498117847        3.1501903124
  C         7.6642138076        6.2212662714        2.0728786939
  C        11.7839024617        0.7811986485        0.5938666338
  C        12.2222671532        3.0108107181       -0.4110741181
  H        11.7659989654        1.0291404122       15.1498973486
  H        11.6034438909        2.9156685178       15.1945279862
  C        12.6804130243        2.0921796707       16.7870447196
  H         6.6884267507        9.7313015934       16.1212618452
  C         6.5883303160        8.2512731247       17.3860797230
  H        14.6148215332        7.5049680773        5.8712883851
  H        15.3028270952        6.9119455215        4.3712729785
  C        15.6995394482        5.7887786404        6.1218801846
  H         7.6441306133        7.3481123901        2.1216984093
  H         8.1767111454        6.0084489012        1.0871991467
  C         6.2512599750        5.7008902216        2.0400007336
  N        11.5468558460       -0.1468640526        1.5797747940
  C        12.2501986698        0.1955963845       -0.5459317833
  C        12.5158229513        2.4281478622       -1.6528907432
  H        12.2381444509        4.0267396695       -0.3607023764
  H        13.5388092114        1.4394727809       16.9113971555
  H        11.9103886759        1.8457400712       17.5445177592
  H        13.1142537030        3.1138022816       16.9624532682
  S         6.5065217409        6.6180292710       17.9215374012
  C         6.4126384044        9.2710522605       18.4765208762
  H        15.3913388078        5.9565140252        7.1402614116
  H        15.6755991725        4.7063932836        5.9279742657
  C        17.0871511481        6.2605877190        6.1933450469
  H         5.8837787670        5.5401066395        3.0895561101
  H         6.2239469469        4.7186436501        1.4917984869
  C         5.2531539407        6.6802472066        1.3443672918
  S        11.7397474906       -1.6216044588        0.9998568410
  N        12.3542006171       -1.1997407470       -0.4566431753
  C        12.4958023489        0.8945249237       -1.7214263553
  H        12.7105174801        3.0695039916       -2.4287255982
  C         6.1513360140        7.2827569923       19.5391396027
  N         6.0986002381        8.6288844148       19.6168268154
  O         6.5583207321       10.4760972128       18.2844085641
  H        17.5105638980        6.2792728556        5.2301109798
  H        17.1805153417        7.3428790964        6.2989386277
  C        17.8669228228        5.4989840227        7.1666839693
  H         5.4203976352        6.6403219791        0.2917128714
  H         4.2435985111        6.1523161162        1.3493710660
  C         5.0578352659        8.1003399469        1.8066499844
  C        12.8560975895        0.1302763636       -2.8947299550
  S         5.5497976230        6.3402461123       20.9330424183
  C         5.9755580396        9.2649695758       20.9364642938
  H        17.6024940324        6.0189874480        8.1182985175
  H        17.5970979541        4.4909779662        7.1975226092
  C        19.3607894301        5.7683055466        6.8817984886
  H         5.9148897329        8.4892822518        2.4093213385
  H         4.1684625898        8.2768915653        2.4927979077
  C         4.8752710449        9.0219726850        0.5782760475
  H        12.3571521594       -0.8451576387       -2.9317960264
  C        13.3426516582        0.3958763700       -4.1573043613
  H         5.1574934651        8.8507747676       21.4471781322
  H         5.6054846344       10.3069179887       20.8371290264
  C         7.4069647062        9.2272620867       21.5720274941
  H        20.0527014330        5.4836350281        7.6396207236
  H        19.4860129242        6.8452678909        6.8736154571
  C        19.8993649652        5.0889589147        5.5986904292
  H         5.8282191753        9.1275501880        0.1244248890
  H         4.2059407813        8.4968207234       -0.0925433185
  C         4.2209524036       10.3829849610        0.7568350134
  S        13.9040195850        1.9300822379       -4.6636460659
  C        13.3705804646       -0.6760504615       -5.2303230764
  H         7.5634350655        8.3328523183       22.1750528400
  H         7.5140607628       10.0475441417       22.2762648724
  H         8.1729935303        9.2391768491       20.8032904957
  H        19.7052341512        4.0620783803        5.5784515188
  H        19.5915173418        5.5128600497        4.6380701221
  H        20.9045995540        5.3093804542        5.6915137605
  H         3.9779208584       10.7669007254        1.7617467902
  H         4.8324881962       11.1766807274        0.3005275330
  H         3.2536344629       10.4137983533        0.1783131052
  C        14.2831208755        1.1590954976       -6.2392973616
  N        13.9559594967       -0.1584417382       -6.3502656439
  O        13.0534762070       -1.8416557887       -5.1233720647
  S        14.9788641037        2.0329532370       -7.6065330102
  C        14.1491060638       -1.0432788651       -7.5518620103
  H        14.5800346752       -2.0074552634       -7.1447301784
  H        15.0120340804       -0.7112366865       -8.0336514673
  C        12.8907708049       -1.0823063655       -8.4455651155
  H        12.9552027597       -0.2817405024       -9.2460292604
  H        11.9747814556       -0.9152754268       -7.9895332999
  H        12.8039005211       -1.9920429493       -9.0040618632
