352
 i =    89100, time =    44550.000, E =        98.8578825448
  H        12.0018677259        7.6393592156       32.5459917865
  C        11.6685550311        6.5713963878       32.4998374327
  H        12.4268158695        5.9591644691       32.1881773518
  C        10.4987732674        6.3837201629       31.5266583179
  C        11.1730543658        6.2715110721       33.9283362303
  C        11.0572996055        6.1590080205       30.1418453924
  H         9.7424656750        5.6239635901       31.8567951322
  H         9.9402025971        7.3008724575       31.4708831740
  H        11.8824578066        6.5955072454       34.6566526682
  H        10.1874696013        6.5535939416       34.2543606438
  H        11.0434675988        5.1986313144       34.0518973320
  C        10.0463756764        6.3860140900       29.0808669735
  H        11.4231526596        5.1441893293       30.1366752357
  H        11.9171771595        6.8045252139       29.9755635372
  C        10.4919702572        5.9227673650       27.6508785360
  H         9.1863242890        5.7763800156       29.4574798065
  H         9.8647086143        7.4795989531       29.0828618540
  C         9.4191010062        5.1927218334       26.8039802091
  H        11.4063892256        5.3675275687       27.7167201819
  H        10.6808170687        6.9215569344       27.2463002362
  C         8.3052943535        6.0540819341       26.4109865603
  H         9.8292004109        4.8205195228       25.8719548841
  H         9.0416372717        4.3245503822       27.3711997190
  C         7.1387154640        5.3151967741       25.7131694156
  H         7.9699731099        6.4038122757       27.3738293890
  H         8.6941756479        6.8688236997       25.7942253781
  C         6.7649039934        4.0006521607       26.3941688171
  C         7.5545512219        4.6004128682       24.4489323895
  C         5.8678210556        6.1788567581       25.4414536178
  C         6.8559409899        2.9108506026       25.6046520874
  C         6.2649671603        3.6058062867       27.6779815761
  C         7.3661186951        3.2846057940       24.3416813974
  C         8.1461328278        5.1999321550       23.3768877513
  H         6.2193610983        6.9002545454       24.6559572994
  H         5.4866840657        6.7853282789       26.2345543056
  C         4.6315734684        5.4482101642       24.8532444751
  S         6.4848332656        1.3791520010       26.3646240997
  C         6.1418630160        2.2112470105       27.7832796064
  H         6.2473849189        4.3822275456       28.4469544928
  C         7.7279296892        2.6626015794       23.1940693310
  H         8.0172316248        6.2912267550       23.3722200741
  C         8.5143831115        4.5669149579       22.2612089615
  H         4.9688249591        4.9882039256       23.8622813937
  H         4.3496590009        4.5483139664       25.3913559339
  C         3.3384933482        6.3102454525       24.7663217075
  C         5.7431457831        1.5340221589       29.0111709911
  C         8.3410037956        3.2405650430       22.0832174233
  H         7.6047528999        1.5724331505       23.1488099338
  C         9.0758094499        4.9841626468       21.0599017478
  H         2.7530374946        5.7469136857       24.0537349440
  H         3.6048346418        7.3099731083       24.3655202075
  C         2.6622010784        6.4453520986       26.1873482586
  C         5.8623569374        0.1480457756       29.2721485982
  C         5.2733274871        2.3519637866       30.1507399070
  C         8.7178262421        2.6402912198       20.7705389995
  C         9.2935446634        3.9568787051       20.1792370154
  S         9.4950109013        6.5291564961       20.2944475711
  H         1.8315511136        7.1030489633       26.1378396435
  H         3.3636515975        6.7434128996       26.9741710396
  C         2.0180376465        5.1890241675       26.7303221964
  N         6.3378966501       -0.7698809740       28.3366365032
  C         5.6193557675       -0.4211442845       30.5215586955
  C         5.2626069683        1.8480526238       31.4334062331
  H         5.0572625477        3.4155516382       30.0845561691
  C         7.4984309654        2.0541363270       19.9102013366
  C         9.9365074268        1.6807777157       21.0168733331
  C         9.8050159534        4.3343895913       18.9493669513
  C         9.9081218608        5.6931001401       18.8023286100
  H         1.3160582656        4.8551283993       25.9552733674
  H         2.6929595130        4.3472936158       26.8535757028
  C         1.2743048895        5.3904362604       28.0273426607
  S         6.2205464894       -2.2803321805       28.9700169347
  N         5.8754582130       -1.7867128208       30.5235666555
  C         5.3716303322        0.3943503070       31.5953350601
  H         4.8466279039        2.4832787679       32.2400484492
  H         7.2736674264        1.0687377933       20.3261191884
  H         7.8234456345        1.7133755576       18.9869229683
  C         6.1996438419        2.9434886133       19.8679549730
  H         9.9723568391        0.8815880591       20.3430004685
  H         9.7552922395        1.1430790164       21.9487171012
  C        11.2888856343        2.3966060682       21.0806037561
  H         9.7959377588        3.6203238759       18.1369183461
  C        10.2882311379        6.4545749230       17.5421337461
  H         1.0086890095        4.3616748985       28.2311740212
  H         0.3608477133        5.9984263540       27.8394893781
  C         2.2391846070        5.8904688330       29.1471584337
  C         5.1645686126       -0.2650138739       32.8700371151
  H         6.4512783395        3.9345828010       19.5933971567
  H         5.8359160729        3.1310663428       20.8393176483
  C         5.1408555894        2.5554303093       18.8320802144
  H        11.2337052945        3.2518373889       21.7304006124
  H        11.4762909039        2.7701150043       20.1081005649
  C        12.3743879267        1.3656575788       21.4829187323
  C        10.2305312133        7.8455805399       17.4363062147
  C        10.5114377126        5.7347950859       16.2495632721
  H         3.1857308669        5.3509252291       28.9373707270
  H         2.4672223848        6.9885265343       29.0331227907
  C         1.8118580391        5.6155458858       30.5920769881
  H         5.6958321357       -1.2072105547       32.8790324675
  C         4.8321827014        0.1714966760       34.1242841205
  H         5.7797669946        2.2266222114       18.0329837794
  H         4.5229161300        3.3942794553       18.5058521974
  C         4.3340209857        1.3005858864       19.2765149973
  H        12.0701659441        0.7913937652       22.3533243353
  H        12.6332048838        0.7566039725       20.6081124040
  C        13.6393492271        2.1310721367       21.8678615098
  N        10.0913481873        8.6937770792       18.5336131822
  C        10.5861757128        8.5689375141       16.2924458956
  C        10.8294279735        6.4713391041       15.1626866931
  H        10.3981618676        4.6439131274       16.1472449976
  H         1.2179370855        4.6872221892       30.5434435978
  H         2.6817936628        5.4696674214       31.2127892281
  H         1.1398187314        6.4368412086       30.9158682827
  S         4.2940376632        1.7377105972       34.5969932088
  C         4.8725666002       -0.8544667762       35.2118599077
  H         4.8232052594        0.6757162752       20.0228119923
  H         3.4211065020        1.6929406234       19.8284502976
  C         3.9860143331        0.5338104036       18.0789189690
  H        13.5272689732        2.7528511340       22.7963616277
  H        13.9818317552        2.8140611109       21.0167043389
  C        14.7841388590        1.1482484887       22.2434995802
  S        10.0372276040       10.2455283162       18.0267018150
  N        10.4877512205        9.9457924778       16.5238921543
  C        10.8327251738        7.9658577642       15.1109517385
  H        11.0177743909        5.8893865742       14.2058802071
  C         4.1012729546        1.0302152605       36.2422759792
  N         4.2948759377       -0.3374269864       36.3093022563
  O         5.2178230825       -2.0273564024       35.0488806180
  H         4.8743484162       -0.0807922960       17.8167535657
  H         3.9168117349        1.2668602185       17.2966727036
  C         2.7652697632       -0.3060658986       18.3406305776
  H        14.4567004548        0.2952214692       22.8727748146
  H        15.2025271430        0.7498740089       21.3203399071
  C        15.9065710787        1.7855065873       23.0441432336
  C        11.2188754108        8.7763674165       13.9877962953
  S         3.6385028038        1.9982623103       37.7138697800
  C         4.1351997177       -1.1170834762       37.5207275845
  H         2.3310692840       -0.0767553778       19.3304890709
  H         1.9626882290        0.1546707028       17.7334144744
  C         2.9710887424       -1.8297979667       18.1668020487
  H        16.3010185573        1.0356601235       23.6704821589
  H        15.4527752642        2.5948176427       23.6728082694
  C        16.9644455784        2.3731037384       22.0818865813
  H        10.9479717999        9.8084784807       14.0898487258
  C        11.6958227463        8.4405220156       12.7653166825
  H         3.1940657749       -0.9437798665       38.1405415535
  H         3.9450887634       -2.1831649207       37.2963548262
  C         5.4429283889       -1.0585190442       38.4004511352
  H         2.6153817477       -2.2818263670       19.1299606371
  H         4.0613061136       -1.9925896060       18.0547964098
  C         2.4683061141       -2.4576090936       16.8567296264
  H        16.8154191650        2.2313528418       21.0682065319
  H        16.9651611963        3.4627068453       22.1368925990
  C        18.2584459801        1.7239780755       22.4426664072
  S        12.1610919405        6.8386651306       12.1436843575
  C        11.6892969915        9.5000709905       11.6549608153
  H         6.3537245872       -0.8610846329       37.7272623410
  H         5.4492801215       -0.3674511467       39.2566785121
  H         5.7320175863       -2.0278346509       38.7826284239
  H         2.2560747054       -3.4697865057       17.1005970649
  H         3.1901696367       -2.4601700482       16.1189440673
  H         1.6025201527       -1.9748238813       16.4488575404
  H        18.4241123611        1.6110986355       23.5149495125
  H        19.0571605230        2.3626154535       22.0909075292
  H        18.3164935311        0.7319969491       22.0034735783
  C        12.6452986114        7.6618105006       10.6488012797
  N        12.3310923321        8.9968538097       10.5701270980
  O        11.1679795036       10.6318411317       11.6296066075
  S        13.4343619065        6.9563277882        9.1414199700
  C        12.4560918047        9.7748735744        9.3952993081
  H        12.4279781639       10.8243651533        9.6958578277
  H        13.3870515041        9.6108265236        8.8529477849
  C        11.3898074177        9.4213663912        8.2843090980
  H        11.6410653267       10.1094809768        7.4930459661
  H        11.3485214444        8.4757215468        7.7815220855
  H        10.4345381558        9.6326276404        8.7877779877
  H         4.4056557340        1.3203076981       12.9134789379
  C         3.9361379801        2.3040061097       13.0504191576
  H         4.6858483738        3.1347163024       13.1174007647
  C         3.0061042732        2.4374560592       11.8986322079
  C         3.1396140451        2.3625802738       14.3137163565
  C         3.8987516182        2.6468128332       10.6045244099
  H         2.2479025345        3.2062183948       12.0253619745
  H         2.5034734403        1.5203509980       11.8295746566
  H         3.7458598306        2.9794966220       14.9735702061
  H         3.0277729531        1.3955340741       14.8315493096
  H         2.1257000421        2.8381452517       14.1986965893
  C         5.0050476147        1.6068758120       10.3162575721
  H         3.2613339447        2.7405840029        9.7414405902
  H         4.3210452983        3.5754027569       10.7280982876
  C         5.8423145316        1.7957882259        9.0442657910
  H         4.5595024763        0.6340579579       10.2492041580
  H         5.6500510088        1.5497514774       11.1246732733
  C         7.0027535081        2.7347565178        9.3602925782
  H         5.1613711816        2.2176298365        8.2781882714
  H         6.2420339011        0.8559056389        8.6155676901
  C         8.3344898449        2.0654206887        9.6023917410
  H         7.1003976320        3.3994121207        8.4846679324
  H         6.6453737924        3.3505757778       10.1579935440
  C         9.5084353852        2.9980940416        9.8162042906
  H         8.4112732622        1.2172273431        8.9048946305
  H         8.2995296835        1.5642156138       10.5769998756
  C         9.1363660600        4.3476564601       10.3758280541
  C         9.8862476538        3.6261935015        8.4584239642
  C        10.7798445323        2.4707450235       10.5325843316
  C         9.2706364186        5.4533659728        9.5423970366
  C         8.5686544176        4.7374455223       11.5980927629
  C         9.7228180705        4.9527749880        8.2669226955
  C        10.3342238763        2.9548901635        7.3167300244
  H        10.4767078102        1.8122402585       11.3705541653
  H        11.3719220437        1.8491526556        9.8619283487
  C        11.7394338450        3.4955655068       11.1711684477
  S         8.9761673480        6.9470791353       10.2920760457
  C         8.3305085966        6.0565714068       11.6626288268
  H         8.4175790750        4.0241320301       12.3288632715
  C        10.1190239276        5.5415486310        7.0572992928
  H        10.5570554867        1.8888983698        7.4134044492
  C        10.6580782660        3.5663553104        6.1175825049
  H        11.4378750332        4.1278521857       12.0228727176
  H        11.8483607831        4.2203891655       10.3395948076
  C        13.0212073856        2.7963162266       11.5218963413
  C         7.8327883547        6.7246065498       12.9101711642
  C        10.6426496825        4.8825375341        5.9810468784
  H         9.9593083071        6.5868177659        6.8299768509
  C        11.0317785653        3.1610266680        4.8861047313
  H        13.6928811576        3.6541240088       11.6336449353
  H        13.2785489377        2.2398034945       10.6512499052
  C        13.0714822686        1.9802680580       12.8062104202
  C         7.8903305002        8.1183336604       13.2064827554
  C         7.3884698257        5.8988046108       14.0618239670
  C        11.1485015363        5.5171580553        4.6806614401
  C        11.2851790560        4.1751808979        4.0387849466
  S        11.3719184873        1.6078853948        4.2833325406
  H        12.1778662855        1.4093860993       12.9225436212
  H        13.9571575081        1.3282840767       12.7299200980
  C        13.5329934534        2.9038908566       13.8917520212
  N         8.1786250226        9.1331751521       12.3361413356
  C         7.5827533263        8.6671398070       14.4500339864
  C         7.0175695355        6.4337569346       15.2768217844
  H         7.2868437739        4.8414326175       13.9275649434
  C        12.4394790884        6.3706358199        4.8544488500
  C        10.0600537220        6.2474294319        3.7976916909
  C        11.6932016343        3.6660083532        2.7715862391
  C        11.8130389524        2.3180332057        2.7329355872
  H        13.8459299111        3.9028014603       13.5961568077
  H        14.3912769856        2.4895971660       14.4475116597
  C        12.5256921129        3.0347410001       14.9775586178
  S         8.0604332216       10.5611310716       13.0703766633
  N         7.6827379865        9.9892831159       14.5572815617
  C         7.2610276568        7.8641968880       15.5822000894
  H         6.7209159275        5.7301106813       16.0283751991
  H        12.1676956547        7.2638986488        5.3526888326
  H        12.8362192477        6.7267448977        3.8835815742
  C        13.5068064696        5.6232839638        5.6866454872
  H         9.9382672330        7.2852818518        4.1409437340
  H        10.4808592863        6.2483782092        2.8027445150
  C         8.6178743995        5.6180415702        3.6918771973
  H        11.9041743380        4.3932512630        1.9815343338
  C        11.9767631439        1.5587370709        1.4345610437
  H        12.5252718790        3.9278508728       15.5539541039
  H        11.5312495619        3.0314486336       14.5296174295
  C        12.5162082569        1.9453286707       16.1061217735
  C         7.1241810114        8.4886966890       16.8285218503
  H        13.0524530626        5.4503313508        6.6595788148
  H        13.7982002153        4.6958448312        5.1935895063
  C        14.8519378654        6.3887838550        5.8026103585
  H         8.1621373061        5.5660860591        4.6885945366
  H         8.6536090686        4.5830694682        3.4229023025
  C         7.7810805648        6.2136726020        2.6115650053
  C        12.0919876119        0.1451336559        1.2792933169
  C        12.2616374548        2.2611742285        0.2081143693
  H        12.9193532144        0.9319579667       15.9534810747
  H        11.5840410396        1.8396951499       16.5453409281
  C        13.4169690916        2.3602350012       17.2599853563
  H         7.4933790207        9.4919925460       16.8584221069
  C         6.7518670173        7.9780814412       18.0097993209
  H        14.7427511646        7.3943106151        6.2391349966
  H        15.2052925982        6.6310204920        4.7750621951
  C        16.0228686019        5.7748451936        6.6110889478
  H         8.0365576909        7.2330160392        2.3995634576
  H         8.0127874769        5.5779187854        1.7277189458
  C         6.2214899307        6.1351944657        2.7956867501
  N        11.7996979404       -0.7914489255        2.2618138211
  C        12.3216101867       -0.4572198066        0.0361292227
  C        12.5872578125        1.7134925204       -0.9737218829
  H        12.2363689110        3.3480858235        0.1967669512
  H        13.0984833905        3.2856834792       17.6553738047
  H        14.4379131744        2.4393531695       16.8878658356
  H        13.3727322677        1.5972310945       18.0502298142
  S         6.2785490841        6.3631081250       18.4101466217
  C         6.6059520552        8.9818929500       19.1087409358
  H        16.5529287348        6.4896978176        7.3298999817
  H        15.6274753262        4.9987170074        7.2945844887
  C        17.1994301802        5.2034072932        5.7408395362
  H         6.1055921107        5.4133934779        3.5631471274
  H         5.8183936499        5.6332307326        1.8966654179
  C         5.6102571438        7.5051828075        3.0199700741
  S        12.0224822314       -2.2775012943        1.6659972168
  N        12.3269287274       -1.8140172195        0.1180300646
  C        12.5214674802        0.2295289789       -1.1172437928
  H        12.6522384378        2.3362286682       -1.8357664659
  C         5.9970735857        7.0317457445       20.1505628096
  N         6.0032669759        8.4097779830       20.2366300768
  O         6.7579374138       10.1892785792       18.9603578206
  H        17.0157505351        4.5349829733        4.9481013135
  H        17.6849879360        6.0414779490        5.2412523761
  C        18.2848184895        4.5122915692        6.5041304244
  H         4.5771507454        7.3920721010        3.3794877999
  H         6.2273875972        7.9424933157        3.8338525445
  C         5.6070851424        8.3067241645        1.6906329620
  C        12.8808159279       -0.5190652278       -2.2705424820
  S         5.5221396114        6.1143505640       21.5501225691
  C         5.9410758651        9.1168594709       21.4927651951
  H        17.7790974363        3.6504094230        7.0316756985
  H        19.0067367513        3.9678817810        5.8662321317
  C        19.1221052873        5.3963715711        7.4564251749
  H         6.0938507291        7.8228517592        0.9076858020
  H         6.0803590981        9.2744254906        1.9182613677
  C         4.2373446870        8.6600873695        1.1842298944
  H        12.6770609829       -1.5310978284       -2.3957298603
  C        13.3706815952       -0.1051811298       -3.4757239092
  H         5.2203128871        8.6679989931       22.1863993632
  H         5.5127853744       10.0688603507       21.2776541108
  C         7.2300432658        9.1895632816       22.2430892472
  H        19.2194375274        4.8431631609        8.3928284518
  H        18.5258185648        6.2300687365        7.7045702379
  C        20.3834600918        5.8544103141        6.7580618492
  H         4.0894106489        8.4660322693        0.0561203053
  H         3.4410166420        8.0680766918        1.6686143530
  C         3.8284706784       10.1274107554        1.3455041079
  S        13.8121621379        1.5068136286       -4.0101839945
  C        13.5152298715       -1.2058220190       -4.5240912732
  H         7.4663478589        8.3168845686       22.7358856369
  H         7.4011618290        9.9914010639       22.9866254641
  H         8.1383945376        9.4081922089       21.5999926049
  H        20.1438704416        6.4786904948        5.9016872845
  H        20.9000629423        6.3665134826        7.5554650734
  H        21.0132712834        5.0229304613        6.4104923506
  H         2.9282950957       10.2533761074        0.7880606558
  H         3.5832978321       10.4068970664        2.3252918753
  H         4.6467907326       10.7379679204        0.9690019633
  C        14.1811775928        0.7383250015       -5.5528002354
  N        14.1056066017       -0.6350640071       -5.6008785666
  O        13.2619524265       -2.4075441494       -4.3619722832
  S        15.0509509265        1.5322128671       -6.9132098581
  C        14.4685146385       -1.4905860877       -6.7138458366
  H        14.7930099225       -2.4812825899       -6.2950441887
  H        15.2463058329       -0.9966598281       -7.2998201890
  C        13.3363187375       -1.7879034988       -7.6319693493
  H        13.6750759691       -1.4776049160       -8.6148163012
  H        12.4670154575       -1.1472156713       -7.4836504305
  H        12.9148548485       -2.8624287365       -7.5923772567
