352
 i =    14500, time =     7250.000, E =       116.7304446318
  H        10.4015242935        4.4259323390       32.8328880087
  C        10.4901413192        5.5032858933       32.8505886736
  H         9.7145514107        5.8663753409       33.5403709427
  C        10.2788689644        6.1955793734       31.5108338542
  C        11.8777540893        5.7182956727       33.4803595673
  C        10.5352291158        5.3379806997       30.3193273571
  H         9.2194314489        6.4457912450       31.3265713321
  H        10.9547443025        7.1562533337       31.5161170907
  H        11.9799125306        6.7799745756       33.6729052310
  H        12.1030824540        5.2230749325       34.3921342751
  H        12.6820276818        5.3570257975       32.8808920562
  C        10.2608054693        6.1513916003       29.0730307926
  H        10.0594158838        4.3527174587       30.2037609808
  H        11.6231238178        5.2187002095       30.3273597501
  C        10.7598280847        5.4946894558       27.8097994333
  H         9.1964269035        6.1858888214       29.1086775229
  H        10.7030620432        7.1499595987       29.1433363410
  C         9.5637404411        4.9054076873       26.9998942587
  H        11.4058302149        4.7132939802       28.0657364022
  H        11.3141766636        6.2523184866       27.2881464800
  C         8.5857134051        5.9271810989       26.5018774541
  H         9.9533546833        4.1689879718       26.2149417811
  H         9.1859292669        4.4231794319       27.9137426266
  C         7.3484468111        5.2083036803       25.6899661198
  H         8.2665314908        6.6985542348       27.1938347175
  H         9.1924398858        6.5704833196       25.8938417176
  C         6.9745119973        3.8762823872       26.3356225316
  C         7.9020652388        4.5058214673       24.4950761464
  C         6.1148968043        6.0713638973       25.5892872269
  C         7.1973989422        2.7660239861       25.5268168994
  C         6.4270064629        3.4664594683       27.5860365219
  C         7.7645541297        3.1904167406       24.3314903531
  C         8.3699572297        5.0426841903       23.2440072139
  H         6.4003674504        6.9463468871       25.0698033094
  H         5.7633985832        6.4941958921       26.5600264418
  C         4.9914195844        5.4549016169       24.8196485445
  S         6.6786601503        1.2742104531       26.1626871031
  C         6.1697307126        2.1254973172       27.5815453968
  H         6.3730823959        4.2257416790       28.3656250110
  C         8.1275596152        2.4885018139       23.2032255800
  H         8.3888073482        6.1327765422       23.1674650788
  C         8.6965027383        4.3831122976       22.0866644187
  H         5.2942927398        5.1014808194       23.8373399349
  H         4.6698969822        4.5467258961       25.3395572970
  C         3.6799903983        6.3364575323       24.7611966740
  C         5.6705270038        1.3864877489       28.7738037823
  C         8.6745960532        3.0420164543       22.0216761100
  H         7.8473546273        1.4373436752       23.2159395388
  C         9.0482759034        4.7317865711       20.7930476840
  H         3.0462245493        5.8590285618       24.0891365104
  H         3.8595550926        7.3420783983       24.2884789915
  C         2.9156865118        6.5366532474       25.9724131176
  C         5.6208461810        0.0186563479       28.9359142256
  C         5.2888762533        2.1952125839       29.8943746615
  C         8.9722704416        2.3026251826       20.6666662948
  C         9.2217937055        3.6012125203       19.9589145379
  S         9.2988278142        6.2223963818       19.9284887712
  H         2.0576385004        7.0501865639       25.5315698072
  H         3.4144962501        7.2081460536       26.6330040883
  C         2.2193140555        5.4341058947       26.7096104980
  N         5.8672697725       -0.9808014051       27.9774545384
  C         5.3032388088       -0.5938783699       30.1761313060
  C         4.9665179290        1.6303339788       31.1522818923
  H         5.2708347497        3.2819178417       29.8283603160
  C         7.7937078750        1.5480972852       20.0991848706
  C        10.2311842878        1.3546844053       20.7394616718
  C         9.7059048108        4.0575297029       18.6822532615
  C         9.6197216091        5.3778452282       18.4864779643
  H         1.6820218048        4.8465336412       25.8978370943
  H         2.8504065286        4.8466760032       27.2189048593
  C         1.0616614144        5.9802315158       27.6708347007
  S         5.8644478954       -2.4374205929       28.6813588777
  N         5.2885381087       -2.0149237565       30.1035084058
  C         5.0661315256        0.1243524255       31.3682276317
  H         4.8685937864        2.2779217511       31.9797100654
  H         7.3604876235        1.0122575497       20.9556473439
  H         8.1208074430        0.8348179063       19.2870229431
  C         6.6653002683        2.5169521308       19.5490968592
  H        10.4248362676        0.9313470284       19.7052330371
  H         9.9157691014        0.3745404040       21.2467292794
  C        11.5572099590        2.0437642320       21.3162568380
  H         9.8164324048        3.3010963498       17.9530199841
  C         9.9655513537        6.0912531518       17.2520169783
  H         0.2224270273        6.3758853545       27.1298499193
  H         1.3437797021        6.8074481765       28.3509692505
  C         0.3883996021        4.9570917140       28.6238337906
  C         4.8494259880       -0.6154304145       32.5736618811
  H         7.0879707812        3.0448632807       18.7259620500
  H         6.3713997681        3.2345718814       20.3006652984
  C         5.4229593475        1.8098071528       18.9227762800
  H        11.4098738834        2.2053180034       22.3944098580
  H        11.5554127574        3.0392286931       20.7982356496
  C        12.8876438709        1.3177876573       20.9224189738
  C         9.7586371585        7.4670574242       16.9936685885
  C        10.1876625179        5.3170881500       16.0380312188
  H        -0.6873521122        5.1707509082       28.6895495906
  H         0.4536791107        4.0100154341       28.0466657051
  C         1.0417040545        4.9574534168       30.0542953650
  H         5.1332140907       -1.6608393693       32.5630729798
  C         4.5749782463       -0.1891242581       33.8428150761
  H         5.1538428533        0.9432584292       19.5855846288
  H         5.6614815525        1.2812769744       17.9609493248
  C         4.1670442919        2.6296344252       18.7609356642
  H        12.8716952813        0.4240859816       21.5532648290
  H        12.7574073146        1.0062699667       19.8346262348
  C        14.1116059544        2.2516279229       21.1288476777
  N         9.3797756177        8.3160621017       18.0301446676
  C        10.0457014069        8.1855319541       15.8389240875
  C        10.3728726978        5.9745947704       14.7995772921
  H        10.3008261528        4.3085949255       16.2857210256
  H         0.4172049623        4.4349799536       30.7590742914
  H         2.0295010217        4.5875287760       30.1440215314
  H         1.1397787642        6.0620024619       30.2450285059
  S         4.3989394017        1.4265287191       34.3589183396
  C         4.5205031928       -1.1422352954       34.9509787074
  H         4.2855946968        3.3933081584       19.5497494178
  H         4.1139027027        3.0644329009       17.8031151452
  C         2.9235160568        1.7448056411       19.0963648245
  H        13.9061830708        3.1451811090       20.4741586917
  H        15.0396207601        1.7898281020       20.8974741634
  C        14.2857903341        2.7438589784       22.5730897563
  S         9.4129876201        9.8055164468       17.4717066246
  N         9.9691307986        9.5222690680       15.9584193371
  C        10.4229286831        7.4896956830       14.6767212474
  H        10.5604519896        5.4197395116       13.9614022770
  C         4.1444048672        0.7553917504       35.9452672126
  N         4.1829815433       -0.5928917893       36.0806951638
  O         4.5578898715       -2.3462901073       34.8393030260
  H         2.0930343449        2.3481780037       19.3520568385
  H         3.1107251384        1.3609906829       20.1225186754
  C         2.5944096651        0.6956633319       18.0996009989
  H        13.7126834596        3.7060434882       22.4339297982
  H        13.6967732681        2.1504697916       23.2286972165
  C        15.5341436138        3.1261101977       23.2498080338
  C        10.7585663968        8.1794561038       13.4865406431
  S         3.6214847214        1.7567870853       37.3499550703
  C         4.1131373317       -1.3062818566       37.3586463885
  H         2.3483650148        1.0895065669       17.1543157338
  H         3.4772651804        0.2279862523       17.9111175227
  C         1.6481647280       -0.4609358293       18.6728309812
  H        15.1916685503        3.4656583072       24.1968554130
  H        16.0040720470        3.9799709407       22.6978123617
  C        16.5900787111        2.0808109158       23.3661451050
  H        10.7186325489        9.2103973431       13.4339805143
  C        11.2691321599        7.7306522833       12.2708410202
  H         3.3078795744       -0.9537869550       37.9959857884
  H         3.8164559921       -2.4005333508       37.1506982180
  C         5.4656803809       -1.2057922592       38.0892145721
  H         0.6375804813       -0.1215682913       18.9711229498
  H         2.1127593194       -0.7812731013       19.6273422165
  C         1.4245040484       -1.5824012955       17.7250592547
  H        16.9549238410        2.1423234061       24.3944751977
  H        16.2225923196        1.0948504890       23.2743937152
  C        17.7359897360        2.1442681768       22.4614573675
  S        11.8412329784        6.1269571834       11.8097098266
  C        11.5233995749        8.8322999529       11.3040132673
  H         6.0460226625       -2.1222026571       38.0959916210
  H         6.0561660043       -0.3746486040       37.6738205735
  H         5.3626704007       -0.9610884597       39.1065608705
  H         0.9054727564       -2.4313757895       18.1824164468
  H         2.3560294202       -1.9473190210       17.3328869711
  H         0.9278829235       -1.1877912102       16.8169145644
  H        18.2577786926        3.1396653701       22.5532038817
  H        17.3592080592        1.8485371359       21.5074803029
  H        18.5101539292        1.3935816245       22.8661028031
  C        12.1356664287        6.8706844307       10.3347799929
  N        11.9848174821        8.1575049483       10.2057847834
  O        11.3464352363       10.0632050010       11.3757197554
  S        12.8026873300        6.0038315902        8.8932488707
  C        12.1850177216        8.8544550790        8.8865368962
  H        12.4413154378        9.9136933352        9.0694570051
  H        13.1410796242        8.5018744329        8.4164208013
  C        11.0373992836        8.6425158273        7.9015662453
  H        11.3688273230        7.9429707884        7.1961961418
  H        10.0418259834        8.4568047015        8.3209997956
  H        10.9669371558        9.5863310806        7.4137225791
  H         4.8327867356        1.9051728546       12.7024489767
  C         4.0344012173        2.6421775748       12.8055241937
  H         4.4761878061        3.6208877919       12.7677511652
  C         3.0360537542        2.5514616871       11.6101867357
  C         3.3262220734        2.3130606910       14.1197697946
  C         3.7251176198        2.6837388183       10.2720275168
  H         2.4130840386        3.4397128301       11.7880999859
  H         2.4279735049        1.7218802430       11.6266634374
  H         3.3510633704        1.2228790969       14.3293080591
  H         2.3401606175        2.7035657741       14.1037968202
  H         3.8830969957        2.6938211070       15.0147372894
  C         4.3921045286        1.4268018595        9.7782917381
  H         2.9869856826        3.0454249770        9.5585417834
  H         4.4058503868        3.4550985582       10.4748076539
  C         5.0441259232        1.6124111653        8.4125975402
  H         3.6009776864        0.6878981263        9.7898108410
  H         5.0744051826        1.0576911544       10.5367804565
  C         6.3075563932        2.5144080258        8.5566190825
  H         4.3941405788        2.1015789666        7.7214695899
  H         5.3403417801        0.5930222157        8.0308243152
  C         7.4812438645        1.7404329978        8.9871810685
  H         6.6552733206        2.8990623539        7.6058339445
  H         6.0352455520        3.4036219091        9.1242550763
  C         8.7183096349        2.6490576507        9.2586045578
  H         7.6072132635        0.9693467361        8.2573387952
  H         7.1707826162        1.2302378828        9.9145161366
  C         8.4100540791        4.0869263217        9.9887220399
  C         9.1778862886        3.4104180431        8.0365469183
  C         9.9252115817        1.9100662674       10.0194903869
  C         8.7413972925        5.1856781508        9.1948785654
  C         8.1255772589        4.5606723350       11.2544461897
  C         9.2098885272        4.7709456760        7.9791169764
  C         9.6405548015        2.7835855705        6.8675980590
  H         9.5016655601        1.3536334003       10.8577141263
  H        10.3568761120        1.1118746235        9.3762690038
  C        11.0980439759        2.8733941161       10.5037290856
  S         8.2488880455        6.7464677550        9.9678604721
  C         8.0108531040        5.9377085441       11.3472052711
  H         7.8282356863        3.8847589478       12.0874520567
  C         9.6392633483        5.4005540655        6.8710497724
  H         9.7244570085        1.6804335883        6.8160623238
  C        10.0402497701        3.3931230219        5.7619932670
  H        10.8881935641        3.9328047225       10.7062901282
  H        11.9444045793        2.8710776306        9.8028181318
  C        11.9297137311        2.4122806219       11.7308883720
  C         7.6348496046        6.6070767440       12.6616375951
  C        10.0769074275        4.7463234753        5.7104625182
  H         9.6144990853        6.4660403799        6.8741723643
  C        10.4535881347        2.9954989071        4.5384669440
  H        12.6406172015        3.1098616880       11.9471033419
  H        12.5166022293        1.5303880077       11.5664164879
  C        11.0552692457        2.2062149861       12.9706816802
  C         7.6505683751        8.0096693257       12.8880622822
  C         7.2392465431        5.7690031807       13.7899455580
  C        10.5046922520        5.4560728698        4.4339209838
  C        10.7286253420        4.0764968473        3.7512285232
  S        10.8444185517        1.5267397916        3.7885743959
  H        10.1495592972        2.8055216500       13.0382708751
  H        10.6534965536        1.1412754340       12.9010295891
  C        11.7732033239        2.4907129043       14.2288039488
  N         8.0400418889        9.0530045525       11.9457953388
  C         7.1709603396        8.5910157991       14.0299249157
  C         6.9596863964        6.3768800708       15.0230912951
  H         6.8833571049        4.7534680557       13.6897827901
  C        11.8822475965        6.1384502197        4.3723475961
  C         9.2988626802        6.2492750214        3.7344122314
  C        11.2072217489        3.7317071424        2.4540753937
  C        11.1971233716        2.3671631776        2.2967609306
  H        10.9861564048        2.5723009834       14.9976569606
  H        12.3217103560        3.3973419126       14.2221556176
  C        12.6762144663        1.3256743235       14.5857864242
  S         7.8424966900       10.4635820858       12.6441745920
  N         7.2188598069        9.9885806994       14.0461035630
  C         6.8058853231        7.8440586325       15.1554310741
  H         6.6206397230        5.7988671718       15.9077538593
  H        11.7924333134        7.0420196011        4.9732041277
  H        12.0374110181        6.4193400645        3.3095499034
  C        13.1728348623        5.4442262314        4.8473997453
  H         9.1539003242        7.1947027643        4.1317699651
  H         9.7505930468        6.4948476842        2.7813505815
  C         8.0136728184        5.4644391133        3.5864124674
  H        11.4426152126        4.5468554211        1.7437105740
  C        11.4659258207        1.5807395464        1.0521465598
  H        12.1021396008        0.4166676161       14.7136562412
  H        13.3149643179        1.1682587782       13.6653036073
  C        13.4419926367        1.5517484813       15.8937191972
  C         6.4459299989        8.5824192939       16.3357126515
  H        12.8829032477        4.9131827689        5.8001123312
  H        13.5726903598        4.7023615182        4.1591799421
  C        14.3164415978        6.3456140512        5.0394411890
  H         7.6881699742        5.0965041513        4.5499554491
  H         8.1587800643        4.5322160967        3.1240319303
  C         6.8897082762        6.1906140850        2.8029098527
  C        11.5666229455        0.1626416448        0.9408691124
  C        11.7302910394        2.3614203471       -0.2124016594
  H        14.3409921313        2.2050185011       15.7039528792
  H        13.8026306596        0.6260664970       16.2937359313
  C        12.5755295366        2.2680692443       16.9104732929
  H         6.1761408503        9.6143754598       16.1884649915
  C         6.2350181282        8.1826458845       17.6279654515
  H        14.0651756283        6.9287869769        5.9115990913
  H        14.4019621384        6.9932282412        4.0935409178
  C        15.6896677429        5.6464610645        5.2590302735
  H         6.8650754172        7.1810403076        3.2855222685
  H         7.3032407153        6.3677691389        1.7957436781
  C         5.6492570786        5.4365391932        2.6475694063
  N        11.2325077894       -0.7106990914        1.9183112995
  C        11.8147420548       -0.4774952702       -0.2518421511
  C        12.0195406221        1.7165535820       -1.4266888713
  H        11.6136791942        3.4202227934       -0.2249298468
  H        13.1026075530        2.1952066688       17.8960175374
  H        11.6821442910        1.7068865563       16.9040944028
  H        12.4241687992        3.3461646412       16.6553603941
  S         6.1121397894        6.5833591453       18.2956814833
  C         6.3117820256        9.2456776909       18.6860808793
  H        15.6274166451        4.6536563290        4.8772564918
  H        16.4487206715        6.1432823273        4.6882397618
  C        16.0944112975        5.5685277635        6.7457433900
  H         5.4048057869        5.1035926305        3.6157945735
  H         5.8618944455        4.5877130932        2.0289981725
  C         4.5954251161        6.2600414505        2.0734727224
  S        11.3489384787       -2.2510886987        1.3889169616
  N        11.9235007641       -1.8847922971       -0.1207426541
  C        12.2135663942        0.2316783800       -1.4625540920
  H        12.3681880028        2.3932372801       -2.2044235260
  C         6.0240375307        7.3513131207       19.9470117997
  N         6.0936663663        8.7475613649       19.9486370862
  O         6.4768918479       10.4343612038       18.3187132692
  H        15.8163171765        6.5561541184        7.0307637706
  H        15.3853591357        5.0127767698        7.2831907308
  C        17.5097156228        4.9115425247        7.0630631533
  H         4.8396924489        6.6940352738        1.1372692943
  H         3.9001706170        5.4795549028        1.7428714153
  C         3.9806761235        7.3034289876        2.9788831809
  C        12.5878567136       -0.5772265827       -2.6421101079
  S         5.4664559314        6.5615687794       21.4200436453
  C         6.1474391454        9.6281509169       21.0987390817
  H        17.2291358685        4.4713878337        8.0138090821
  H        17.6786721786        4.1095919990        6.4019258439
  C        18.6822676311        5.8485445307        7.0166223161
  H         4.5372041583        7.6300057495        3.8157653498
  H         3.1138277913        6.8204122222        3.4292685726
  C         3.4425799896        8.5401528426        2.3156888363
  H        12.4310797307       -1.7175029495       -2.4487239541
  C        13.0708885266       -0.2626570039       -3.8193840783
  H         5.3792532730        9.3141182612       21.8139329684
  H         5.6650645029       10.5314840534       20.8911811480
  C         7.6107914520        9.7116362989       21.4695886996
  H        19.3314840915        5.2640627546        7.7015103322
  H        18.5769565839        6.8296485755        7.4272534429
  C        19.2267547630        5.8418826003        5.6340224739
  H         2.6296400522        8.4368112419        1.5865774574
  H         3.0349822718        9.2369299491        3.1340601917
  C         4.5752115493        9.2747314730        1.6822229028
  S        13.5314965689        1.2642751200       -4.4026829553
  C        13.3623478192       -1.3814283028       -4.7178578563
  H         7.8003581547        9.8435894761       22.5643870335
  H         8.0052463994       10.5616587528       20.9129621573
  H         8.0872563825        8.7868033984       21.2224023971
  H        20.1343606129        6.4738905400        5.5843665644
  H        19.4610339164        4.8444828822        5.3980333734
  H        18.5391359765        6.2283232124        4.9079512392
  H         4.4549482692       10.3289603641        1.6470792276
  H         5.5497279607        9.1818895499        2.1328998747
  H         4.7256919355        8.8696159014        0.6844633162
  C        13.9780756244        0.4692299198       -5.9689908334
  N        13.9782322249       -0.8765275937       -5.7898847033
  O        13.1163388646       -2.5721359807       -4.4982934571
  S        14.9555600621        1.1264376272       -7.2392173199
  C        14.1911401373       -1.8576897837       -6.9440552728
  H        14.5550908866       -2.7862644992       -6.4810740698
  H        14.9758140743       -1.4922318939       -7.6568263375
  C        12.8949409189       -1.9699784801       -7.7099471391
  H        13.0612912676       -1.9778837515       -8.7376361706
  H        12.3070508135       -1.0898617950       -7.4336663067
  H        12.3089867019       -2.8273577397       -7.5122752443
