352
 i =    40100, time =    20050.000, E =        99.4112494472
  H        10.3530607142        4.8703660083       31.9569750057
  C        10.5374658078        5.9030967556       32.4178997922
  H         9.4839721161        6.2213718506       32.5840719575
  C        11.3647480857        6.8048124956       31.4095701794
  C        11.4319007562        5.5536839795       33.6708525344
  C        11.6018231544        6.1210186920       30.0572529197
  H        10.8350423945        7.7513717215       31.3435339054
  H        12.3474602511        6.9438919503       31.8419186504
  H        11.5224313110        6.3620118419       34.4348057621
  H        10.9401456370        4.7337047323       34.1552074483
  H        12.4084642427        5.3379654094       33.2732105111
  C        10.2499990398        5.8386101624       29.2752684268
  H        12.0248882996        5.0754807411       30.2222171868
  H        12.3573898064        6.7238727926       29.5840546897
  C        10.6275077191        5.4317099016       27.8092463708
  H         9.5858641292        5.1453324228       29.7243504884
  H         9.6818003358        6.7653495446       29.1508506315
  C         9.4686556104        4.8550450567       27.0060240759
  H        11.5355454939        4.8074026274       27.8594529530
  H        10.9961773359        6.3196832936       27.4109620728
  C         8.2660889149        5.7917559982       26.5775664922
  H         9.9264830655        4.3643274446       26.1129991518
  H         9.0295989033        4.1190475776       27.5727369129
  C         7.0809798156        5.1326213467       25.7163389229
  H         7.9492539621        6.4068604255       27.4252940939
  H         8.7761146553        6.5675988935       25.9968981455
  C         6.6516520849        3.8488090218       26.4071221218
  C         7.6524288667        4.4390152573       24.4894264258
  C         5.8615930654        6.0200381044       25.4690959806
  C         6.9934605649        2.7483008800       25.6288785042
  C         5.9350945347        3.5174720428       27.5962437875
  C         7.4525000739        3.0944730101       24.3893875423
  C         8.2190504030        5.0435675346       23.3875730198
  H         6.0802405105        6.8877172861       24.9510690177
  H         5.5307767515        6.4978100385       26.4310082578
  C         4.7311117242        5.4222469128       24.6767952480
  S         6.6520915969        1.3335676169       26.4004933185
  C         5.9483389811        2.1349815869       27.7383677437
  H         5.5734530743        4.4168664293       28.2618204865
  C         7.8581136986        2.4317453112       23.2945962983
  H         8.4715151334        6.1180760066       23.3369471238
  C         8.5317342604        4.3443123343       22.2280862379
  H         5.1682761601        5.1117683682       23.6513752161
  H         4.5246774128        4.4639963643       25.1774280963
  C         3.3999152799        6.2302443565       24.5376898593
  C         5.6859860434        1.4063245248       28.9876431716
  C         8.4175315381        2.9944620428       22.1233257538
  H         7.6124819889        1.3834274489       23.3114763109
  C         8.9181975343        4.6671202267       20.9799988218
  H         2.7162346138        5.6990205123       23.7779002336
  H         3.5808778084        7.3015255845       24.1790589137
  C         2.5587252697        6.3724554132       25.8050098670
  C         5.8199915351        0.0105919713       29.1787340236
  C         5.2188756857        2.2280281988       30.0681839803
  C         8.7856854864        2.2120975878       20.8305767533
  C         9.1019637572        3.5617196957       20.1938288661
  S         9.1638007957        6.1426394410       20.1289652561
  H         1.7111370158        6.9732079382       25.4881987771
  H         3.0272062373        6.9955387170       26.5467252601
  C         2.0350914534        5.0668212086       26.4909803992
  N         6.0785855984       -0.8808679929       28.1552212532
  C         5.4822755737       -0.5877086140       30.3645047844
  C         4.8241526285        1.6092691033       31.3045086706
  H         5.0786700667        3.2464822622       29.9452596220
  C         7.6777040012        1.3555822171       20.0810188833
  C        10.1086806722        1.3948211069       21.0767876449
  C         9.5082853374        3.9200429245       18.9129961036
  C         9.5714825326        5.2679028480       18.7376071893
  H         1.4398042041        4.5953846165       25.7255537471
  H         2.9152108369        4.4102661424       26.6467854608
  C         1.1741396551        5.2908426446       27.6927006225
  S         6.1058420794       -2.4073863217       28.8203936112
  N         5.5652816380       -1.9904985355       30.2824251789
  C         5.0571295732        0.1554267078       31.5115031812
  H         4.4271521314        2.1717845229       32.0885086846
  H         7.5566799808        0.4376818355       20.5867369183
  H         8.1421218654        0.9644692845       19.1364075124
  C         6.3699604332        2.0804028014       19.8348494427
  H        10.3727415324        1.0016307006       20.1104302715
  H         9.9599150176        0.5249740300       21.6821876402
  C        11.3726540359        2.1937652016       21.5353034399
  H         9.5702674318        3.2117211745       18.1174847542
  C         9.9047013490        5.9707474475       17.3962115578
  H         0.5061699225        4.4362052678       27.7907057307
  H         0.6998557354        6.2696228576       27.6778863685
  C         1.8824967587        5.3185357646       29.0159406727
  C         4.9234245674       -0.5121025721       32.7789440193
  H         6.4585918660        3.1869843145       19.9968040272
  H         5.6380159871        1.5935127581       20.4880422755
  C         5.7535385970        1.8351839736       18.4669429290
  H        11.1389560402        2.5419683153       22.4769837424
  H        11.6272983527        2.9818577641       20.7801388716
  C        12.5660448659        1.3167691359       21.5441684473
  C         9.9230398157        7.3920953226       17.1796733799
  C        10.2279720270        5.1328217103       16.2160983808
  H         2.0685726476        4.2268625816       29.1717580184
  H         2.8686549212        5.7258031352       28.7988745457
  C         1.1366051344        5.8772307379       30.2512167990
  H         5.1630642171       -1.5408019644       32.6884513275
  C         4.6506456603       -0.0699514775       34.0860409556
  H         5.7965893102        0.8399377360       18.0640053674
  H         6.4314900774        2.3544617153       17.7767483663
  C         4.3034107933        2.3486801316       18.3606603555
  H        12.3625012042        0.6759754259       22.3486806626
  H        12.6132862503        0.7873096285       20.5999872349
  C        13.8545266482        2.1402124033       21.6740916857
  N         9.4596133037        8.3401850387       18.1195358094
  C        10.2729061411        7.9177741226       15.9826048867
  C        10.6160456567        5.6768063521       14.9658287743
  H         9.9077255405        4.0398436333       16.2476604337
  H         0.1163724323        6.1615360615       30.0752689210
  H         1.1000824256        5.1223074575       31.1208743556
  H         1.5396045285        6.7769636031       30.6985465987
  S         3.9751404568        1.4108252306       34.6065827519
  C         4.8319058415       -1.0987693671       35.0900269205
  H         4.1386764791        3.2775255417       18.9701765009
  H         4.1386817925        2.7036225884       17.3818947465
  C         3.2685700989        1.2152298827       18.6467031244
  H        13.4817552724        3.1034635633       22.1854848433
  H        14.4365239699        2.4226712321       20.7858116692
  C        14.8845256430        1.5127331226       22.6511631570
  S         9.5217090903        9.7606093358       17.3665918807
  N        10.2882042490        9.3094167107       16.0110422420
  C        10.7007512360        7.1632043756       14.8008703587
  H        10.9131118084        5.0710465398       14.1148325142
  C         4.1689871270        0.7564232164       36.1959984568
  N         4.5206295906       -0.5449817956       36.2175363770
  O         5.3153055945       -2.2273453219       34.7930038653
  H         2.3093880686        1.6716618504       18.8941526806
  H         3.6111371834        0.7827219173       19.5932318586
  C         3.1914887161        0.0578353579       17.6031778828
  H        14.3791106974        1.1145069345       23.5287516616
  H        15.5260361546        0.7497298142       22.1658668578
  C        15.6889732511        2.6112999092       23.2653492103
  C        10.9168197226        7.9045919612       13.6068847308
  S         3.6316406816        1.5672044427       37.6880907646
  C         4.6751262512       -1.1862306248       37.4234748739
  H         2.6897774785        0.5521075096       16.8015322440
  H         4.0265858130       -0.4098551331       17.2591168762
  C         2.1177584539       -1.0171707261       18.0405796614
  H        15.0464514498        3.0058921948       24.0201638965
  H        15.6802656552        3.3902082207       22.5117058714
  C        17.0733795096        2.2556478240       23.7032678420
  H        10.7300517124        8.9766478006       13.7039651036
  C        11.4305334997        7.5152638517       12.3944841670
  H         3.7537500500       -1.0615451276       37.9697860987
  H         4.6094689389       -2.2825814114       37.1666910069
  C         6.0302757921       -1.0393119949       38.0323741844
  H         1.2194234149       -0.6328581707       18.4524463998
  H         2.6750962837       -1.4902329485       18.8656506881
  C         1.9689601784       -2.0112849279       16.9014938964
  H        17.5081879294        3.0317103011       24.2316005775
  H        17.0903714596        1.3419435395       24.3173505797
  C        18.0107073995        2.0283849995       22.5092375751
  S        12.0967240699        6.0332021811       12.0179995002
  C        11.6431756257        8.5888667885       11.3647169265
  H         6.2014189239       -0.0557863031       38.4461319529
  H         6.1384536057       -1.7328206139       38.8893575701
  H         6.8379603325       -1.3785874928       37.3712177303
  H         1.2920960194       -2.8405590342       17.2090053646
  H         2.9658406398       -2.3796463079       16.6600298304
  H         1.5369070283       -1.4959986818       16.1053614638
  H        19.0559947540        1.7446917578       22.8503586584
  H        18.0626437160        2.8605027627       21.8350033454
  H        17.6235022306        1.1940594827       21.8922306879
  C        12.6680424459        6.7674282034       10.5474178766
  N        12.3710909468        8.1088394701       10.3500038604
  O        11.2584254939        9.7278252949       11.5801349517
  S        13.4871820207        5.9421969737        9.2826084303
  C        12.6248899635        8.9184234544        9.1347613799
  H        12.6123800397        9.9742492549        9.3976017316
  H        13.6050626426        8.7850102193        8.7096644431
  C        11.4890208546        8.6052569105        8.1539223249
  H        11.2713338131        9.4409537019        7.5088607767
  H        11.7201720397        7.8111982061        7.4016708423
  H        10.5160271186        8.2415280087        8.5283377769
  H         4.3078970953        1.0865448206       12.9267542432
  C         4.4134781735        2.1974925320       12.9550609438
  H         5.4786642891        2.2618185685       13.0151413719
  C         3.7865860700        2.8406977899       11.7180732672
  C         3.7506731917        2.6384543696       14.2776489562
  C         4.7005621677        3.0054268256       10.5042458590
  H         3.6852141534        3.8423898833       12.1291056351
  H         2.7728403654        2.4759519686       11.5654199183
  H         4.0148410737        1.9369822540       15.0948501323
  H         2.6265219058        2.7174341286       14.0678371687
  H         4.0564688258        3.6727967919       14.6416155040
  C         4.9464660929        1.6251377448        9.8171918854
  H         4.2494492840        3.8228373777        9.8496248643
  H         5.7158884376        3.3166575285       10.7730782839
  C         5.6031794563        1.6277410684        8.3821165734
  H         3.9380410556        1.1130107387        9.7903601391
  H         5.5725840210        1.0568267891       10.4876346583
  C         6.9245395347        2.4818214422        8.3065280686
  H         4.8932203717        2.0756991840        7.7011769082
  H         5.6185371413        0.6421997010        7.9594017169
  C         8.2058682194        1.7986473245        8.9663694848
  H         7.1317653138        2.7055981950        7.3136646136
  H         6.6725014429        3.3873897233        8.8586344279
  C         9.4407828237        2.7080450638        9.1362508591
  H         8.4947675577        0.8989343607        8.3865000997
  H         7.8484849046        1.4266667174        9.9240208521
  C         9.0358997915        4.0057665739        9.8382389428
  C         9.8219678567        3.4679829994        7.8194161828
  C        10.6369879155        2.0968338215        9.9137704871
  C         9.1685252964        5.1473546565        9.0144589741
  C         8.3971144509        4.4146618652       11.0347005135
  C         9.6505277754        4.8230780142        7.7103147333
  C        10.3143431137        2.9463488704        6.6455420895
  H        10.3580669486        1.7564498181       10.8208714718
  H        10.9935020706        1.2450282681        9.3676979025
  C        11.8801848325        2.9425237438       10.1984889605
  S         8.5486090246        6.6090472274        9.7337557710
  C         8.3292705914        5.7484197756       11.1955276287
  H         8.2362552595        3.6145943337       11.7541807667
  C         9.9278835392        5.4989864391        6.5541861320
  H        10.4011142917        1.8925305435        6.5862494751
  C        10.6340694850        3.6137264272        5.5270553318
  H        11.6050158683        4.0165031687       10.3649227711
  H        12.5585295550        2.9826353289        9.3104655533
  C        12.7847986149        2.3803392142       11.3051280133
  C         7.7254487269        6.3745934411       12.3710780938
  C        10.4920389129        4.9511467572        5.4305696105
  H         9.6905400457        6.5236163979        6.5298597961
  C        10.8541056065        3.1087009300        4.2898189082
  H        13.7892404638        2.7554258666       11.1998565735
  H        12.7280992410        1.2721533601       11.3285885260
  C        12.4857188789        2.8183197325       12.8077655760
  C         7.7690099887        7.7483721724       12.7373690414
  C         7.0973585366        5.5588478624       13.4608694123
  C        10.8933455228        5.5790138504        4.1901112946
  C        11.0786287964        4.1462951763        3.3890365507
  S        11.0788219192        1.5463606659        3.6656349307
  H        13.1259401521        3.7049854423       13.0737890387
  H        11.4898074015        3.1846275542       12.9450220491
  C        12.9621828685        1.6368280554       13.7494352288
  N         8.1669261960        8.7499000437       11.7887932520
  C         7.3833452685        8.2831334807       13.9494400893
  C         6.5868396204        6.0560585886       14.6658741157
  H         6.8068788559        4.5779189405       13.2027637721
  C        12.2301271805        6.3130299731        4.4608813749
  C         9.7269968417        6.4118332759        3.5281794563
  C        11.3329096418        3.6881856258        2.0847310293
  C        11.3816034644        2.3071526369        2.0986379631
  H        13.9995630113        1.2674130588       13.3725682947
  H        12.3083942342        0.7318402379       13.6710886742
  C        13.1166271076        2.0827270879       15.2000851032
  S         8.0734237933       10.2068953675       12.5286317200
  N         7.4896073095        9.6865244410       14.0073704024
  C         6.8060697683        7.4464791131       14.9667578037
  H         6.0857724945        5.3433346431       15.2719007278
  H        12.0461343961        6.9856925016        5.2972898321
  H        12.4779067447        6.9645940257        3.6208271894
  C        13.4159252441        5.4421838893        4.7769497804
  H         9.4770089238        7.2701391938        4.1948232883
  H        10.1261783216        6.7072586842        2.5745347634
  C         8.4285258718        5.6106829258        3.1999051164
  H        11.4971714108        4.3677944629        1.2800231299
  C        11.7701412102        1.4473744292        0.9235221632
  H        14.2819764549        2.3223677362       15.3044951183
  H        12.5880387046        2.9879832783       15.4414498636
  C        12.7084295409        1.0957236518       16.2353652327
  C         6.5997038532        8.0643548873       16.2186929228
  H        13.3296560759        5.0389869457        5.7477895535
  H        13.5511369215        4.6198536447        4.1459045669
  C        14.6274500916        6.4053905019        4.7236254847
  H         8.0539551037        5.1736654216        4.1508433393
  H         8.6516545853        4.7040243881        2.6104646835
  C         7.4312945274        6.4417643252        2.4883289336
  C        11.8343421172        0.0388771940        0.7995607612
  C        11.9828646422        2.1566186650       -0.3485932090
  H        13.4171246556        0.2439376500       16.3572907585
  H        11.7812372344        0.6275821696       15.9864293312
  C        12.4032677640        1.7237505877       17.5977919066
  H         6.6740266627        9.1213352563       16.2315525655
  C         6.2743351844        7.5579167152       17.4692077797
  H        14.4616799058        7.2086019206        5.4337148418
  H        14.8345254366        6.7909426476        3.7357156568
  C        15.9779834355        5.8200074807        4.9976325812
  H         7.2616795635        7.3871321711        3.0023216429
  H         7.7183113233        6.7060207793        1.4402917105
  C         6.2011094340        5.5474732417        2.3879218872
  N        11.5307569718       -0.8412372675        1.8657082035
  C        12.1297605292       -0.6567890073       -0.3666422853
  C        12.3236256399        1.4618409188       -1.5526151821
  H        12.1342922222        3.2510174224       -0.3596880373
  H        13.0221197248        2.5659257682       17.8879371419
  H        12.3691437735        1.0814858657       18.3843153671
  H        11.4049290014        2.2158003003       17.5773432187
  S         6.1884575914        5.8995767611       17.9024692954
  C         5.9998191097        8.5938280220       18.5117259006
  H        16.1580028715        4.9391323520        4.3816352343
  H        16.6238582170        6.6497964156        4.7188020086
  C        16.2656791571        5.4924554251        6.4821333890
  H         6.0223865643        5.0717897718        3.3675807727
  H         6.3316574478        4.6931168457        1.7363836554
  C         4.8888880641        6.2328929007        1.9214462309
  S        11.7875545457       -2.3903019645        1.4123536706
  N        12.3343918343       -2.0408567426       -0.1021443654
  C        12.2914314612       -0.0315882161       -1.6062302587
  H        12.4152380844        2.0808565999       -2.4152182545
  C         5.9866586014        6.5333083112       19.5386121158
  N         5.8896388405        7.8971035192       19.6421714364
  O         6.1356250833        9.8257361926       18.3541813295
  H        16.3442249052        6.4192247066        7.0524210466
  H        15.4865409236        4.8557982200        6.7882550062
  C        17.6618855678        4.8624703369        6.5655748242
  H         4.9104730446        6.5219643780        0.8997591491
  H         4.1282387788        5.4610428096        1.9410836541
  C         4.4303545964        7.4199709598        2.7523010428
  C        12.5310287516       -0.7910836201       -2.8031804271
  S         5.7429280909        5.5496892883       20.9840006161
  C         5.8960378932        8.6389706232       20.9255552422
  H        17.8757777163        4.7477971803        7.6650010049
  H        17.6511521851        3.8402936789        6.1830400257
  C        18.7041959885        5.6328584734        5.8093012210
  H         5.1295177620        7.4889345253        3.5679045549
  H         3.4298874745        7.3303500361        3.1908799051
  C         4.4215249618        8.7033718214        1.8899511129
  H        12.3199567083       -1.8627464276       -2.6953544457
  C        13.1688359120       -0.4821052364       -3.9603422228
  H         5.3837705216        8.0967187268       21.6888014816
  H         5.3362027960        9.6359877928       20.8070675627
  C         7.3626399808        8.7336479990       21.3555575315
  H        18.6074016318        6.7305667215        5.7720884487
  H        18.7935413375        5.1624102190        4.8305669260
  C        20.1128101342        5.3341460700        6.4430350627
  H         4.6870327799        9.5355137053        2.5775586191
  H         5.1352205896        8.6301484298        1.0781509336
  C         3.1027279546        9.0710862665        1.2630766286
  S        13.6337203733        1.0648461164       -4.5081797652
  C        13.3111731610       -1.5038998613       -4.9847423623
  H         8.0701367766        8.3914640010       20.5892807196
  H         7.5123802426        8.1683381239       22.2756442856
  H         7.6406047930        9.7651288877       21.4778405617
  H        20.4187816719        4.2627062961        6.5468875594
  H        20.8486441357        5.8410604367        5.8157777648
  H        20.1476295433        5.7088808610        7.4767717317
  H         3.1871443827        9.9622231930        0.6824309263
  H         2.9956649983        8.2462092673        0.5848332688
  H         2.2852878535        9.1036581717        1.9282917929
  C        13.9981631790        0.3602943967       -6.1006401384
  N        13.8044685871       -0.9394764670       -6.0993906818
  O        12.9524877123       -2.6567371569       -4.9115115599
  S        14.5728652143        1.1514167421       -7.6467035228
  C        13.9609329950       -1.7741563311       -7.1861846272
  H        14.2560868042       -2.8105351267       -6.9378644362
  H        14.8884624732       -1.4070215608       -7.6802562624
  C        12.7829636268       -1.6675661559       -8.0886219947
  H        11.9433766438       -2.0615155334       -7.5949513968
  H        12.9542566769       -2.3877253211       -8.9576010197
  H        12.5722478561       -0.6138977873       -8.3503537405
