352
 i =   133400, time =    66700.000, E =        99.8219992488
  H         9.6028440805        5.1206552116       31.7967888319
  C        10.3840229786        5.8444394182       32.0565676819
  H         9.8020214789        6.8103717354       32.0438034196
  C        11.3400898544        5.9745637389       30.8916229295
  C        10.9401867285        5.4045992008       33.4159438093
  C        10.6388674713        6.1761501831       29.5655954063
  H        12.1194650090        6.7348163184       31.2173844775
  H        11.8379382313        5.0412115004       30.9157876141
  H        10.1892554070        5.4269851636       34.2496797798
  H        11.4414621594        4.4679233868       33.2688961860
  H        11.7464212423        6.0703152740       33.6306722057
  C        11.2745767022        5.1962276196       28.5518241439
  H        10.6076452253        7.1983430215       29.3219016727
  H         9.5837270252        5.9702245808       29.6053658248
  C        11.2315439162        5.6404749083       27.0641445419
  H        12.3490796862        5.0021202110       28.6366252445
  H        10.7891458288        4.2590802915       28.6400891925
  C        10.1076694614        4.9984284198       26.1999791428
  H        12.2339938200        5.4965184511       26.6479161345
  H        11.0903133974        6.6747151564       27.1159150800
  C         8.8755340746        5.9621390920       26.1398580792
  H        10.5251859911        4.9426427802       25.1607632977
  H        10.0172955782        3.9707680938       26.5420725435
  C         7.5800520138        5.3145702572       25.5674241918
  H         8.7174448329        6.2857355362       27.1882026590
  H         9.1205715866        6.9082084789       25.4981535314
  C         7.2681239249        3.9909781534       26.3144439598
  C         7.8991357402        4.5740979389       24.3069842566
  C         6.3520714762        6.2994436021       25.4299606024
  C         7.2630987560        2.8454359659       25.4682621686
  C         6.6548220552        3.6362597233       27.5410519753
  C         7.7412928756        3.2173787994       24.2560481417
  C         8.2726319933        5.1220215693       23.0992857208
  H         6.5452703721        7.1946270896       24.7062700741
  H         6.0912449737        6.6766728685       26.3682885480
  C         5.1527283452        5.6456505751       24.7014023111
  S         6.8963768006        1.3806681113       26.2696357955
  C         6.4567373669        2.2921869079       27.6394594959
  H         6.3834680837        4.4805416527       28.1674532897
  C         8.0650888014        2.5598349839       23.0904767542
  H         8.2970545586        6.1830526587       23.1589957176
  C         8.5432036135        4.4694316086       21.9097059339
  H         5.5571086987        5.2493187060       23.7811598680
  H         4.8567469649        4.7814987594       25.2257882964
  C         3.9798119786        6.6399749948       24.5176968769
  C         6.0639821460        1.5613991926       28.9039668450
  C         8.4893824995        3.1085873613       21.8548757146
  H         8.1715102646        1.5265140012       23.1412467255
  C         9.0121289605        4.7989922162       20.6568732345
  H         3.2255826628        6.1553400431       23.9026730737
  H         4.2824699093        7.5603036278       24.1368791133
  C         3.2760577109        6.9431098423       25.8438790433
  C         6.0346962039        0.1796856943       29.1107473547
  C         5.6429865306        2.4674890785       30.0639055766
  C         8.9549115276        2.3777761231       20.6588200492
  C         9.2140147186        3.6788950351       19.8908124273
  S         9.2435576332        6.2859849432       19.9033766789
  H         2.5398792852        7.7793489143       25.6257811366
  H         4.0005593207        7.4416601769       26.5745671830
  C         2.9162782554        5.6295377941       26.5888328114
  N         6.3237777958       -0.7975710431       28.1420718711
  C         5.7203477600       -0.4125562087       30.3395131725
  C         5.3375511309        1.8603144297       31.2546493043
  H         5.7196612773        3.5331681682       30.0284556065
  C         7.8730657952        1.5527511261       19.8425454566
  C        10.2302021291        1.5669663763       20.9497848528
  C         9.4452752456        4.0565301162       18.5446442528
  C         9.6065835363        5.4033943412       18.4606914262
  H         2.7262096743        4.8409212803       25.9168312397
  H         3.7565227859        5.2269906571       27.1937831617
  C         1.7162720900        5.7909211625       27.4933943744
  S         6.2027744787       -2.2939977861       28.8781500461
  N         5.8894774124       -1.7775249958       30.3665594161
  C         5.4015232146        0.4239013643       31.4594981451
  H         5.1051410309        2.4270242394       32.1145694659
  H         7.4788654894        0.8827418550       20.6250920971
  H         8.2724598237        1.0586429833       18.9508927485
  C         6.6565938334        2.4884627333       19.5473311277
  H        10.5518286863        1.0022969422       20.0825731927
  H        10.0904333062        0.7342684447       21.6373946391
  C        11.4541558325        2.3856200599       21.4122885985
  H         9.4035226924        3.3372185853       17.7983792376
  C         9.8937960445        6.1702205836       17.2002987108
  H         1.2207347322        4.8707506492       27.4711578468
  H         1.0549656803        6.4873406928       26.9987712494
  C         2.1058176211        6.3683197602       28.9472330671
  C         5.0177303375       -0.1921414011       32.7266200673
  H         6.8795420202        3.2990875896       18.8520855916
  H         6.4091657555        3.0810326811       20.3986448675
  C         5.4741932766        1.8055117027       18.8547763960
  H        11.2812607894        2.5262365286       22.4386930201
  H        11.6329824626        3.4265849153       21.0947346781
  C        12.7161920490        1.6422411167       21.4880722648
  C         9.9006355450        7.6048551211       17.0683897634
  C        10.2363307046        5.3939306941       15.9950775954
  H         2.8408873682        7.0791223366       28.8709160761
  H         1.1798924378        6.8030243307       29.3355353048
  C         2.5238573325        5.2808913950       30.0095790777
  H         5.2665061587       -1.2316594890       32.6651279728
  C         4.8069625980        0.2417944901       34.0045474243
  H         4.7439802189        1.6308200945       19.6322681093
  H         5.7286290842        0.8329630238       18.5036847036
  C         4.7739761132        2.5703647861       17.7598863306
  H        12.5625812752        0.9967955640       22.3445155691
  H        12.7661535740        1.0019404279       20.5774304413
  C        13.9256051374        2.5139715651       21.6245317061
  N         9.6379591476        8.5769925313       18.0063804960
  C        10.2440557150        8.1541281617       15.8410681598
  C        10.6098977803        5.9793058976       14.7536267495
  H        10.2863837855        4.3181844100       16.0507380921
  H         2.8935471059        5.7987796668       30.9186482137
  H         1.6799040964        4.6552160550       30.3292153707
  H         3.2059671962        4.5041835108       29.5941211410
  S         4.6817127857        1.8394422881       34.5792927234
  C         4.6436772456       -0.8105398794       35.0393434075
  H         4.6854934773        3.6010301661       18.0214784959
  H         5.4194353688        2.5959514096       16.9043410463
  C         3.4218641407        2.0025561895       17.4011931595
  H        13.7341898098        3.0005079477       22.5892327625
  H        13.9819712209        3.2800146381       20.8176516879
  C        15.2228419920        1.7337419791       21.6094030593
  S         9.7349209405       10.0186446040       17.3503513771
  N        10.1391156279        9.5529353626       15.8649556462
  C        10.7327588399        7.4442889680       14.7392167376
  H        10.8059451633        5.2849858075       13.9339958480
  C         4.4768293303        1.1215433999       36.1569923345
  N         4.3796440563       -0.1991976698       36.2445302403
  O         4.6902918584       -1.9754317503       34.8059954341
  H         2.9038670991        2.5301513264       16.6413918407
  H         2.7493641499        2.1295882308       18.2701378251
  C         3.3098812692        0.5061258940       16.9068819029
  H        15.2329194065        1.0373497093       22.3966755671
  H        15.2041291988        1.0945227350       20.7123615754
  C        16.3677507800        2.6777977580       21.8395204318
  C        11.1393777390        8.2127340909       13.5774589386
  S         4.0057979986        2.0077885973       37.5990944732
  C         4.3288507228       -0.9173727975       37.4887838169
  H         2.8268679857        0.3948533496       15.9211349459
  H         4.2349997187       -0.0475723297       16.9011829464
  C         2.3740243902       -0.3468490008       17.8751695341
  H        16.1754293030        3.4284583991       22.5953510677
  H        16.6868912863        3.1588545544       20.9532758748
  C        17.6527842680        1.9364023241       22.1774081490
  H        10.8169621671        9.2169574970       13.6353348100
  C        11.6742742341        7.9064640933       12.3696390934
  H         3.6268860046       -0.4697680475       38.2172300614
  H         3.8096099446       -1.8762037275       37.3160063014
  C         5.6800276193       -1.0873217387       38.1601703290
  H         1.4254303038        0.2672529759       17.8662099680
  H         2.8766288158       -0.3209302183       18.8904530622
  C         2.0480721694       -1.7103144987       17.3655611212
  H        17.6256671755        1.0065869093       21.5886461984
  H        18.5704620150        2.4555017316       21.8219925672
  C        17.7612996502        1.6884654191       23.6306024502
  S        12.1559222647        6.3263761041       11.7777456797
  C        11.6675372065        8.9654655180       11.3138230910
  H         6.1009848958       -0.1222718804       38.3746714531
  H         5.5666735757       -1.6657120830       39.0502013345
  H         6.3209535432       -1.6862496611       37.4977434986
  H         1.3577440614       -2.2548199969       18.0373899140
  H         2.8501828617       -2.3741836389       17.2675136701
  H         1.5729815328       -1.5754160741       16.3644351345
  H        17.1785287025        0.8615937288       23.9388541647
  H        17.3005805936        2.4792330851       24.1864718101
  H        18.8403633014        1.5851849185       23.9168918823
  C        12.3883479772        7.1249096885       10.1834963888
  N        12.1594607481        8.4600453911       10.1635909449
  O        11.3730111726       10.1396309110       11.5453813337
  S        12.7918982762        6.3228989878        8.6695956511
  C        12.4014042727        9.3582439216        9.0121171355
  H        12.8336014393       10.3443873151        9.2900428694
  H        13.1363468796        8.9031023399        8.4528532641
  C        11.0784515414        9.3491258743        8.2292916364
  H        10.2017538379        9.6384626758        8.8259411246
  H        11.0854247331        9.9162564096        7.3452305729
  H        10.8507268668        8.3803384391        7.8539488457
  H         2.9153205220        1.6809905289       12.7335748833
  C         3.7357801025        2.2978426225       12.5393587963
  H         4.5820235124        1.6433356087       12.2785081684
  C         3.4474353754        3.1641322427       11.3745071180
  C         4.0000540224        3.0461545764       13.8723113125
  C         4.3909494233        3.2367368354       10.1554915557
  H         3.1938155719        4.1498751880       11.7315131305
  H         2.5033938370        2.8113824776       10.9783025256
  H         4.8749855866        3.7339226202       13.7558972462
  H         4.2439421957        2.4079346445       14.7056003227
  H         3.0258302850        3.6394577549       14.1554106196
  C         4.5733763257        1.8350116661        9.5408160183
  H         3.9350042747        3.8088637442        9.2985051225
  H         5.4131790450        3.5091164288       10.2804471865
  C         5.3224155816        1.7235919819        8.1357160371
  H         3.5675260326        1.3808379420        9.3989207898
  H         5.0667602963        1.1562203996       10.2210552301
  C         6.5629683147        2.5204794808        8.1444804819
  H         4.6693374255        1.9919644226        7.2620831552
  H         5.5205210345        0.6861064521        7.8955880293
  C         7.7051140796        1.8930360596        8.9368319665
  H         6.7601320779        2.8106367420        7.0871321846
  H         6.2870390638        3.5470861510        8.5273391326
  C         8.9919867445        2.7808108189        8.9602966242
  H         7.8439238458        0.9204472845        8.4703358706
  H         7.4345016837        1.5613039229        9.9408546672
  C         8.5983960604        4.1244731355        9.4979465382
  C         9.3837766390        3.3810262397        7.6389865749
  C        10.1123891307        2.1097622808        9.8316127191
  C         8.8473268587        5.2016284224        8.6413062088
  C         8.0139134308        4.4846745135       10.7128039994
  C         9.3983218370        4.7307392472        7.4460663868
  C         9.9942878187        2.6859281714        6.5618931181
  H         9.4933748495        1.8130341796       10.6714443913
  H        10.3469063633        1.1568626808        9.3224010223
  C        11.2348954582        3.0199540782       10.3093988541
  S         8.5944820049        6.7682503929        9.3635657315
  C         8.0296652103        5.8574925190       10.7810010247
  H         7.7340830168        3.6571962277       11.3347904792
  C         9.8948272406        5.2618957025        6.2823909649
  H        10.0207841096        1.6388580813        6.5991750690
  C        10.4429711577        3.2475702659        5.4017710473
  H        10.7712441800        3.8988612690       10.8259027426
  H        11.7899617602        3.5075910692        9.5321303187
  C        12.2885466200        2.3433650688       11.2588176918
  C         7.6414154811        6.5796848615       12.0833440840
  C        10.4055801531        4.5455320238        5.1840435013
  H         9.7191244063        6.3137079308        6.2189854245
  C        10.8993413028        2.7420049832        4.1665125706
  H        13.0665947524        2.9272300047       11.6429128297
  H        12.6695330723        1.4736007142       10.7844609172
  C        11.6065831642        1.7609878985       12.4899209910
  C         7.8347462233        7.9419816945       12.3503079365
  C         6.9613140684        5.7960287837       13.1825431024
  C        10.8056279198        5.2121051113        3.9425176219
  C        11.1227667476        3.8145862164        3.2775041976
  S        11.0800200907        1.1624862251        3.5586168923
  H        10.7598915905        2.3648407204       12.8507409099
  H        11.2863255528        0.7584484187       12.1955370116
  C        12.5661868535        1.4452192787       13.6358437776
  N         8.1444013640        8.9157105283       11.3908639460
  C         7.5328045336        8.5526689508       13.5846856978
  C         6.7794156548        6.4110935993       14.4231044152
  H         6.8250468116        4.7132198500       13.1103155009
  C        12.0792478671        6.0682337918        4.1562376454
  C         9.7193252517        5.9942838620        3.1661584299
  C        11.6806190437        3.3635093236        2.0695560600
  C        11.6337362124        1.9622370781        2.0619414124
  H        13.5356899539        1.3691155385       13.1082070656
  H        12.3888228931        0.5057183183       14.1088983877
  C        12.6757044798        2.5388252566       14.7021282387
  S         8.1808650591       10.4295177843       12.0521545580
  N         7.8357411928        9.8910513979       13.5976239987
  C         7.0148585049        7.8644851131       14.6897280317
  H         6.4950644097        5.7543387111       15.1569396529
  H        11.8159436706        6.9809490887        4.7538491636
  H        12.5643459865        6.4653664898        3.2373812132
  C        13.2425831923        5.2816588897        4.8111855862
  H         9.3756581651        6.7999128579        3.7642241949
  H        10.2289468163        6.5685820349        2.3729341029
  C         8.5129718974        5.1705316606        2.7745177087
  H        11.8910600405        4.0700801611        1.3004386679
  C        11.9452238753        1.1188934177        0.8686579267
  H        13.5606068515        3.0947865907       14.2940798744
  H        11.7930287288        3.1674939531       14.8739295859
  C        12.9888653207        1.7751790744       16.0323315786
  C         6.6494141511        8.4630350957       15.8814217076
  H        12.8296183113        4.8067569259        5.6555994110
  H        13.6355429967        4.5428425137        4.0686695842
  C        14.3869238296        6.0775159380        5.2723667639
  H         8.1371915272        4.7105266683        3.6188595329
  H         8.8176869645        4.4248074371        2.0630166767
  C         7.4077029532        6.0092654059        2.1873459161
  C        11.9723057281       -0.3469496261        0.7897377782
  C        12.1063724555        1.8942896268       -0.3994024009
  H        13.8644169773        1.0047619252       15.8816574651
  H        12.0784090362        1.1180451728       16.1551398909
  C        13.1504547346        2.6202208128       17.2461216520
  H         6.7836199338        9.5810700140       15.8627058120
  C         6.4074615345        7.9839600410       17.1635462043
  H        14.1447786093        6.8062922301        6.0492801587
  H        14.8570903969        6.5600771977        4.4041866076
  C        15.4647328696        5.2546959442        5.9302113505
  H         7.0355452916        6.7497332621        2.9780532564
  H         7.8557559126        6.6585776859        1.4775359035
  C         6.1134233349        5.3592787524        1.7326137926
  N        11.5499128521       -1.2710891497        1.7426662070
  C        12.1614216548       -0.9751797877       -0.4402828998
  C        12.2617421247        1.2040007370       -1.5582478044
  H        12.0204743600        3.0298467422       -0.5302742338
  H        12.2162371043        3.1005811783       17.5511895009
  H        13.9489132522        3.2265749093       17.0290296818
  H        13.4136408781        2.0543249556       18.1506333605
  S         6.2258460248        6.3147829079       17.5662539469
  C         6.1661951531        8.9252482844       18.2914213453
  H        15.1515751016        4.9159536978        6.8576795066
  H        15.6768413256        4.3389219522        5.3559986235
  C        16.7470407367        5.9804465232        6.2051065000
  H         5.6893857592        4.8579796607        2.5759354326
  H         6.4382744999        4.5971494587        1.0659427180
  C         5.3383724285        6.3454021298        0.9144216940
  S        11.3936890198       -2.7374333929        1.1379812769
  N        12.0562668869       -2.3525664170       -0.3429363869
  C        12.3760304437       -0.2730219164       -1.6899564420
  H        12.2364322516        1.8449899232       -2.4715869933
  C         5.9995602995        6.8521275477       19.2274297534
  N         5.9529609159        8.2031436491       19.3805328552
  O         6.3602000594       10.1548562214       18.2359969172
  H        17.1163105133        6.5336176080        5.3443058744
  H        16.4746227801        6.7274409984        6.9587108756
  C        17.7400282093        4.8942999741        6.6716506963
  H         6.0627870407        6.9810819713        0.3298846221
  H         4.7146709779        5.7730429490        0.2560777379
  C         4.5211398097        7.2434287186        1.8406480438
  C        12.6007633945       -1.0880307456       -2.8601619022
  S         5.5436867910        5.8448775079       20.5872831840
  C         5.9152541007        8.7586002940       20.7195222263
  H        17.1825970268        4.3344057945        7.4782108461
  H        18.0473992078        4.1674380225        5.8657251790
  C        19.0593655058        5.5284730926        7.2102052937
  H         4.9894173396        7.3599255177        2.7735894318
  H         3.5508238441        6.8323559098        2.1179234463
  C         4.3545030974        8.6619371159        1.2450351341
  H        12.5247909271       -2.1208451680       -2.7938964885
  C        13.1065788872       -0.6860645686       -4.0542763804
  H         5.1738320765        8.2217600927       21.3464747399
  H         5.5129422834        9.7670139046       20.5970137859
  C         7.3415878766        8.8001191498       21.3318014265
  H        19.2318234522        4.8722646529        8.0974977765
  H        18.8442397446        6.5734425316        7.5692392138
  C        20.2954517248        5.6040642567        6.3560374112
  H         5.2783797971        9.0181392434        0.8057859116
  H         3.6602784981        8.3820454877        0.4086493690
  C         3.7703622095        9.5257061581        2.2608094138
  S        13.6744306366        0.8595435833       -4.5646058742
  C        13.2461184120       -1.8084392745       -5.0510459419
  H         7.7280638461        7.8211239750       21.6467397609
  H         7.4366682561        9.5116860870       22.1760094785
  H         7.9959302291        9.1555547308       20.5891892429
  H        20.9501089989        4.7219519684        6.6298631040
  H        20.0329870516        5.6750311314        5.2467248887
  H        20.8298554507        6.5323453895        6.5657908544
  H         2.7091002503        9.4510399647        2.3388963872
  H         4.2387311834        9.4021179153        3.2438897035
  H         4.0851081922       10.5364289416        2.0264108860
  C        14.0093196553        0.0505326092       -6.0728477375
  N        13.8869330872       -1.2408123954       -6.0848940076
  O        13.0618841214       -3.0143107224       -4.8035306599
  S        14.5869612003        0.9528270473       -7.3849736052
  C        13.9306370077       -2.0057440632       -7.3057461901
  H        14.0797212691       -3.0083557879       -7.0702060063
  H        14.8259192705       -1.6577827924       -7.8511885705
  C        12.6492786712       -1.7550245008       -8.1677385794
  H        12.8152252383       -2.2915951359       -9.1301282484
  H        12.4051378837       -0.7129484806       -8.3839167273
  H        11.8280090320       -2.2922259616       -7.7066950222
