352
 i =    46800, time =    23400.000, E =        98.0881143400
  H        10.6864183384        4.8848472829       31.7690745682
  C        10.7038041362        5.8507944956       32.2233623767
  H         9.7353602691        6.1390080051       32.6535580194
  C        11.2171246811        6.9448376611       31.3160765224
  C        11.7118273077        5.7274343899       33.4376750347
  C        11.4906554242        6.3628590064       29.9378436249
  H        10.5217040044        7.7430095898       31.2401822240
  H        12.1744527031        7.3470836913       31.5973844375
  H        11.2807418437        5.5219820274       34.4102611037
  H        12.5064854983        4.9631917408       33.3151043020
  H        12.1612831552        6.6812324949       33.7097911051
  C        10.3179587167        5.9338010700       29.0365312911
  H        12.1083478008        5.4441813309       30.0188596049
  H        12.0253481818        7.0992039306       29.2724713451
  C        10.7476206498        5.7527211687       27.5436732777
  H         9.9606963259        5.0245951255       29.4143243796
  H         9.4626374313        6.5606118624       29.1840487459
  C         9.5618034640        4.9720784119       26.8217805185
  H        11.6484522581        5.1219431442       27.5325608436
  H        11.0183934319        6.7488350029       27.0805318181
  C         8.5282493060        5.9883500034       26.4556691227
  H         9.9064326555        4.4675799371       25.9122597499
  H         9.3161832009        4.2768100573       27.6017667095
  C         7.2911445737        5.3813509613       25.6501681634
  H         8.0563081246        6.4338695445       27.3521572316
  H         8.8619260701        6.7610384819       25.8082497329
  C         6.8878958078        4.0050058106       26.3577275293
  C         7.7572879648        4.6831353404       24.4548765461
  C         6.0086262078        6.2514499006       25.4256250396
  C         7.2647485592        2.9409690985       25.5820870284
  C         6.2304278171        3.6310055375       27.5079147008
  C         7.8132686518        3.3264643185       24.3971181617
  C         8.1679344461        5.3320753188       23.2884506988
  H         6.2798318433        7.1574819487       24.8368017307
  H         5.7356586299        6.7025640071       26.3998109274
  C         4.7687219882        5.4872848341       24.7614330429
  S         7.0153393445        1.4846474008       26.3411814292
  C         6.1643578220        2.2740349542       27.6866852901
  H         5.6878725177        4.3974999109       28.1063625489
  C         8.1957497383        2.7163530415       23.3206782877
  H         8.1054017949        6.4248254613       23.2742463266
  C         8.5634020902        4.7057818024       22.1683395575
  H         5.1422316711        5.0802403284       23.7985935878
  H         4.4083000186        4.7048993797       25.3669589062
  C         3.5418678862        6.3036484071       24.4183770316
  C         5.5877785538        1.5743060980       28.9016704814
  C         8.6406188542        3.3481563261       22.1220777648
  H         8.1744361261        1.6558236974       23.3201054277
  C         8.9907183355        5.0329381422       20.8717416321
  H         3.0378023234        5.7901308176       23.6198768190
  H         3.8968208101        7.1624564118       23.8751849767
  C         2.6542375068        6.5159697118       25.7099568361
  C         5.7242994463        0.2009135175       29.2043915085
  C         5.1461652468        2.4364072405       30.0147384504
  C         9.0584059516        2.6045562918       20.8761301837
  C         9.2195081163        3.9619766221       20.1079878777
  S         9.1171779310        6.5518443499       20.0723064315
  H         1.8628759014        7.2783744330       25.4237828866
  H         3.2277597243        6.8982448412       26.5262110149
  C         1.7973866316        5.2610489449       26.1740012399
  N         6.2878722156       -0.6713990853       28.3072281487
  C         5.5215462966       -0.2330327121       30.4764764293
  C         4.9840060085        2.0028825192       31.3764105373
  H         4.9847566660        3.4969987870       29.8761070927
  C         7.9983454321        1.7214943281       20.2091364322
  C        10.3648640208        1.8589222921       21.1661901050
  C         9.7146958230        4.2886529886       18.7720057447
  C         9.6411963244        5.6602884027       18.6090162208
  H         1.0082763073        5.0860276836       25.5031658084
  H         2.4058442902        4.4792818986       26.2292615255
  C         1.1465384346        5.4225182007       27.5764590271
  S         6.2262196683       -2.1200722472       29.0358183262
  N         5.7231275495       -1.6080842155       30.5058946019
  C         5.1379815086        0.5700190351       31.6256057955
  H         4.6329797379        2.7272341139       32.1184875713
  H         7.9496165176        0.7719086320       20.8487997058
  H         8.3601469886        1.3411751423       19.2728775142
  C         6.5029877830        2.1105074735       19.9607342974
  H        10.5905561863        1.0346414826       20.4354511465
  H        10.4004693798        1.4474828901       22.1823580419
  C        11.6242483339        2.7833964438       21.3210061163
  H        10.0145919106        3.4763462001       18.1210433718
  C        10.0743257764        6.3912821234       17.3367862601
  H         0.4128294581        4.5837399108       27.5715011575
  H         0.6394178467        6.3991705249       27.5627005353
  C         2.1334088479        5.2344111329       28.7283681619
  C         5.0030931648       -0.0874829499       32.9024923382
  H         6.3903079461        3.0781711616       20.4732733918
  H         5.9034931821        1.2983811808       20.4421579426
  C         6.0775488758        2.3454573084       18.5277082422
  H        11.4072447416        3.6384008482       21.8969381110
  H        11.8026502191        3.1729987683       20.3501881083
  C        12.9112902564        2.0419760043       21.6412198866
  C        10.2556609011        7.7387379098       17.1954226946
  C        10.2994191531        5.5783292864       16.0893921163
  H         2.3727610451        4.1869171291       28.9425135322
  H         3.1571133879        5.6876041274       28.4424814112
  C         1.5622984213        5.6821469083       30.1474616938
  H         5.4637293761       -1.0167515643       32.9513516524
  C         4.6578883917        0.2779893674       34.1842883034
  H         6.3972986559        1.5757024985       17.9023262060
  H         6.6414483799        3.1759378139       18.0784071863
  C         4.5629422404        2.6114987536       18.4835002799
  H        12.7669546588        1.2554869988       22.3850651644
  H        13.2998663851        1.6182819885       20.7327997304
  C        14.0727948290        2.8898167268       22.1968163442
  N        10.0295156215        8.7587952992       18.1177274018
  C        10.5352402366        8.4192993918       15.9650077595
  C        10.6916267942        6.2147883681       14.9273487295
  H        10.1898365809        4.4935641799       16.1792745828
  H         2.2006366423        5.4379505858       30.9802518889
  H         1.3399931947        6.7646207704       30.1506202343
  H         0.5888241047        5.2816102290       30.2521570595
  S         4.2926330622        1.9353452192       34.6003985347
  C         4.6928761169       -0.6796138074       35.3253952424
  H         4.3528717152        3.2655107023       19.3046228731
  H         4.2657160256        3.2955725659       17.6478821733
  C         3.5474164547        1.4628334260       18.6850038393
  H        13.7684079838        3.3698239630       23.1123897232
  H        14.1910649015        3.7462340591       21.5322453087
  C        15.3693697623        2.0866130868       22.3411284690
  S        10.0579125486       10.2586556340       17.4417000187
  N        10.2886662619        9.8073486045       15.9448507783
  C        10.7933391773        7.6889047184       14.7892465632
  H        10.8533900310        5.6725534842       14.0387409881
  C         4.1596086187        1.2789780909       36.2442761853
  N         4.2771429875       -0.0350158814       36.4291321098
  O         4.7940658808       -1.9085715913       35.2736394148
  H         2.5215536108        1.9116285284       18.9196123687
  H         3.8368263892        1.0405841201       19.6216024687
  C         3.6640779961        0.3420963605       17.6207530014
  H        15.1335473283        1.2502626815       23.0219505496
  H        15.4941391108        1.6850766987       21.3491265403
  C        16.5251410355        2.9791134284       22.8879680016
  C        10.9777145520        8.3808264524       13.5729587234
  S         3.5335730977        2.2628865139       37.5874212785
  C         4.4247697122       -0.7746051546       37.6923389735
  H         3.4070153445        0.6599938817       16.5945234517
  H         4.8133818511        0.1390145429       17.6386837471
  C         2.9008849448       -0.9381076956       17.9630361694
  H        16.3426286015        3.4233118753       23.8477665499
  H        16.5110972822        3.8369162937       22.2016381711
  C        17.9146601138        2.2525532007       22.8226638676
  H        10.5664202729        9.3801031546       13.5442284542
  C        11.6472133849        8.1304168394       12.4107983310
  H         3.8657356588       -0.2929449118       38.4811170293
  H         3.8818989450       -1.7927676811       37.7600085972
  C         5.8997882225       -0.7199814563       38.1091268640
  H         1.8288384456       -0.7665323365       18.1953352779
  H         3.3803478834       -1.5642652126       18.7164008997
  C         3.0461937373       -1.9767258769       16.8306017894
  H        17.9176515414        1.6285643763       21.9639481804
  H        18.7533075198        3.0323485243       22.7384118286
  C        18.1788201412        1.3888517568       24.0208609988
  S        12.1400766097        6.5500697504       11.9342567332
  C        11.8823822044        9.2368327559       11.4468673563
  H         6.3185223140        0.2655733086       37.9288599945
  H         6.1233531331       -1.0397965818       39.1087280992
  H         6.4787189725       -1.2927178555       37.3842173010
  H         3.8555897473       -2.6452650641       17.2210896336
  H         3.3823846836       -1.3950849910       15.9252311839
  H         2.1505402490       -2.5261314841       16.6337210700
  H        18.2180771715        2.0289242990       25.0121216535
  H        19.0930143436        0.8127411444       23.9760526773
  H        17.3946474660        0.6447445131       24.1155730049
  C        12.6950183888        7.3784401123       10.4498042141
  N        12.4431696880        8.7420182597       10.3077819186
  O        11.4211466280       10.3623515617       11.5548513718
  S        13.5393464149        6.5429967184        9.2010677388
  C        12.5815059463        9.5816102898        9.0828149853
  H        12.5846791104       10.6234509850        9.4129650368
  H        13.4564430068        9.4488662825        8.5132398093
  C        11.3458758542        9.5468825014        8.1553874849
  H        11.3704196820       10.3338988559        7.3933951308
  H        11.4165279632        8.6070371155        7.6136103826
  H        10.4046042913        9.4435679444        8.7372094588
  H         3.6048352352        3.7286881965       12.2066705451
  C         3.1270422922        2.8346792963       12.2282597435
  H         2.0819686504        2.8175320246       12.0810699267
  C         3.7826661503        1.7876773497       11.3189410301
  C         3.2471029366        2.5002582987       13.6959347448
  C         4.6938952944        2.3680955524       10.2724591550
  H         3.0529360685        1.0479878210       10.8940264118
  H         4.4276458653        1.1484342078       11.9654482465
  H         2.7439834141        1.5759999679       13.8341272683
  H         2.7362300277        3.2644815151       14.2387835011
  H         4.2926190530        2.3742580432       14.0017164155
  C         5.1842008385        1.2530604272        9.3542679738
  H         4.0245751357        2.9919460524        9.7091551203
  H         5.6288632991        2.9471608063       10.6138647619
  C         5.7993825257        1.7569264126        8.0680752491
  H         4.3812325461        0.6438037890        9.0475132370
  H         5.8868687207        0.5681979878        9.7968152898
  C         7.0835601869        2.6313730983        8.2569783942
  H         5.1022005863        2.2894444137        7.4212470941
  H         6.1040761812        0.9439871149        7.4962730925
  C         8.4024816790        1.9397757499        8.6791063278
  H         7.2698439020        3.2596930967        7.3660481066
  H         6.8669365493        3.4411699975        8.9620600526
  C         9.5913019254        2.9295868583        9.0259754824
  H         8.7388960442        1.2540187034        7.9094940564
  H         8.1099059714        1.2235518041        9.4067920381
  C         9.2511143786        4.2371383251        9.7304518516
  C         9.9805786320        3.6535892130        7.7440945476
  C        10.8512235499        2.2532677708        9.7263950635
  C         9.3536346152        5.3215215025        8.9182664836
  C         8.8072750238        4.6257293166       11.0403885409
  C         9.7978747804        5.0127990648        7.6625041496
  C        10.4934067642        3.1179287701        6.5751385196
  H        10.3830080208        2.0714586337       10.7525853679
  H        11.0852395472        1.2560449238        9.2763408078
  C        12.0587047090        3.1369231479       10.0105125088
  S         8.9609839010        6.7908676233        9.6688457683
  C         8.5505728908        5.9739419815       11.1481861652
  H         8.6301409030        3.8797532535       11.8224167324
  C        10.0388074820        5.7058133628        6.4970489819
  H        10.8228528335        2.0675473214        6.4344200550
  C        10.6822407289        3.7957751624        5.3717153997
  H        11.7529800972        4.0784902044       10.4352434935
  H        12.6815061652        3.4392566349        9.1215224596
  C        12.9881055750        2.5163238208       11.0251723812
  C         7.8809624656        6.6438054755       12.2775629148
  C        10.4700169940        5.1122224787        5.3094733297
  H         9.8926929972        6.7464647881        6.3120238150
  C        11.0989597856        3.4251887628        4.1071573174
  H        13.9026033072        3.0511891917       11.0552998402
  H        13.3445704250        1.5519422348       10.7038333860
  C        12.3699701231        2.4632960076       12.4495602950
  C         7.8625664327        8.0588092990       12.5753163355
  C         7.3781793164        5.7779507535       13.4024431300
  C        10.7668091474        5.8823338319        4.0388653644
  C        11.1710579467        4.5316591806        3.2732544295
  S        11.5040900548        1.9611277300        3.3509642305
  H        11.8485515403        3.3924996952       12.6550214304
  H        11.4580646767        1.8350053049       12.4391431675
  C        13.3209442970        2.1250224399       13.5932328431
  N         8.1839331050        9.0475344840       11.6672345362
  C         7.4872749474        8.5475321332       13.8295118870
  C         6.9774735312        6.3033987451       14.6037417104
  H         7.2420489818        4.7010520416       13.2898349052
  C        12.0594038486        6.6740554493        4.1734525108
  C         9.4781199663        6.5785705515        3.4537285489
  C        11.4561700494        4.1198919157        1.9535504760
  C        11.6387629408        2.7918021617        1.8392820999
  H        14.1211055834        2.8173605316       13.6598725994
  H        13.6114510512        1.0717385112       13.5792403567
  C        12.6234579602        2.3258178123       15.0177391511
  S         7.9646679920       10.4739515396       12.3828369466
  N         7.5763529318        9.9624253084       13.9210254635
  C         7.1399185562        7.7214636823       14.9266089323
  H         6.5861866615        5.6727585083       15.3432504549
  H        11.8250438125        7.4776910438        4.9475740995
  H        12.1382941343        7.1913448173        3.2260162618
  C        13.3134001975        5.9479851666        4.5756106790
  H         8.9661316171        7.0882997427        4.2476123248
  H         9.7743459191        7.3245950420        2.7576716509
  C         8.4349911499        5.6600525726        2.8889711016
  H        11.4011846911        4.7883664764        1.1088518243
  C        11.8378891540        2.0368581700        0.5536723118
  H        12.1965023030        3.2834613490       14.9727867127
  H        11.8013695171        1.6381268593       15.0952773648
  C        13.5524489011        2.3280176625       16.3090376728
  C         6.9690560220        8.2866252961       16.2169357435
  H        13.0984031728        5.3594611478        5.5050443184
  H        13.6298796012        5.2512487091        3.8500683284
  C        14.4943570610        6.7995477791        4.9247608952
  H         8.0440640178        5.0609381420        3.7014331131
  H         8.7526000673        4.9975564974        2.0415261119
  C         7.1981055801        6.3902192857        2.4718629216
  C        12.0800920651        0.6398865714        0.5143409390
  C        11.9163769137        2.7124973726       -0.7928784068
  H        14.2663742204        3.1455305743       16.2418126446
  H        14.2435055825        1.4666654210       16.4864424251
  C        12.8304291248        2.5534179666       17.6073859995
  H         7.1122070400        9.3427146801       16.1459091340
  C         6.6354965394        7.8691676275       17.4915025920
  H        14.2795003926        7.5128202598        5.7015038800
  H        14.7845002699        7.3274371538        4.0398761054
  C        15.6812857744        5.8842630109        5.2784841029
  H         6.8894828926        7.1617144063        3.1172862185
  H         7.2837277586        6.7829897890        1.4563511493
  C         5.9658427770        5.5025862877        2.3387648728
  N        11.9600056339       -0.2248963460        1.5994608356
  C        12.2740330825       -0.0672845127       -0.6376612135
  C        12.0990009871        1.9977437602       -1.9852955598
  H        11.7447634770        3.7451936109       -0.7756973326
  H        11.8772803724        2.0864169022       17.6301165694
  H        12.6794263914        3.6160946537       17.9931079073
  H        13.3964928223        2.1725637017       18.3199238415
  S         6.3263031330        6.2406708960       17.9980353698
  C         6.7027274669        8.8517532468       18.5786152425
  H        15.1914774461        5.0654611188        5.7287475695
  H        16.0713366456        5.6180807256        4.2936946583
  C        16.7461275970        6.5233358070        6.1956107608
  H         5.5255330157        5.4935966583        3.3183266450
  H         6.1844578718        4.4247115882        2.1469431032
  C         5.0061712674        6.0692318827        1.2764638508
  S        12.1093483202       -1.7407928565        1.0531879438
  N        12.4834992475       -1.4218241976       -0.4480346738
  C        12.3384286759        0.4875843558       -1.8877838754
  H        11.9953785089        2.5978911580       -2.8688545188
  C         6.0844265615        6.8769167896       19.7130352423
  N         6.2266951874        8.2732416069       19.7293627456
  O         6.9356869986       10.0050259028       18.3229285451
  H        17.2284651569        7.3422958836        5.7228122792
  H        16.2864888029        6.9323197915        7.0958205476
  C        17.6297679001        5.4083486825        6.6448972172
  H         5.5749840206        6.0320751566        0.3608856707
  H         4.1228660235        5.4205880670        1.1055397160
  C         4.4808765012        7.4773588202        1.6521795915
  C        12.5992123152       -0.3969939995       -2.9899452242
  S         5.4704745201        5.9951348573       20.9798495909
  C         6.1697239507        9.1435304869       20.9017547426
  H        17.0623870934        4.6531228003        7.1422345791
  H        17.9419032255        4.8999289174        5.7442441580
  C        18.7655698066        5.8959628131        7.5203153179
  H         4.8123322088        7.6124235191        2.6589242711
  H         3.4061373461        7.3743260301        1.6844758795
  C         4.8115534394        8.5753816648        0.7543620790
  H        12.3583625865       -1.4068862702       -2.8134912903
  C        13.1447757968       -0.2026718795       -4.2203388335
  H         5.5794493073        8.7417086084       21.7378703390
  H         5.6696095402       10.1086578234       20.5753398594
  C         7.5628887324        9.5533456426       21.4307704261
  H        18.7910360788        5.0666128785        8.2540637086
  H        18.5821982861        6.8934364692        7.9306579467
  C        20.0699172416        5.9648049742        6.7837006839
  H         5.8249495792        8.8554953153        0.9399257000
  H         4.7661685728        8.2338904666       -0.2769401895
  C         3.9276435856        9.8138992436        0.9048059843
  S        13.7781094016        1.3395110144       -4.7501074099
  C        13.2428874432       -1.2595992122       -5.2570776636
  H         8.3899307048        9.8073399933       20.7506631507
  H         8.1090093985        8.8391107433       22.0676225513
  H         7.5093736435       10.4787381791       21.9864406298
  H        20.5282714627        5.0152248613        6.3997197320
  H        20.0485615872        6.5848101732        5.9188904889
  H        20.7289773499        6.4156173755        7.4408844931
  H         3.5692422381        9.8976492896        1.8952534250
  H         4.5523163508       10.5963468300        0.4986872442
  H         3.0047066544        9.7088946894        0.3899637285
  C        14.0494886028        0.5612160685       -6.2353993883
  N        13.8434649441       -0.7570221763       -6.3224698224
  O        12.8717138933       -2.4302086581       -5.0954767818
  S        14.7309299575        1.3686813535       -7.6212958848
  C        13.9762777505       -1.5373442159       -7.5164473772
  H        13.9949925593       -2.5806776525       -7.3041184965
  H        14.8299566479       -1.3082820519       -8.1121760053
  C        12.8485603197       -1.4408037972       -8.4984008322
  H        12.5444370131       -2.3771469180       -8.9391197565
  H        13.1129592897       -0.8128322522       -9.3198412005
  H        11.9028881080       -1.0581537179       -7.9902515700
