352
 i =    63300, time =    31650.000, E =        98.7922899232
  H        11.9298699451        5.4516913509       32.4109350992
  C        10.8669783603        5.3553805339       32.7968878505
  H        10.5301026357        4.3228328113       32.6719251700
  C        10.0703181383        6.3003786373       31.8413917735
  C        10.9293905634        5.8065484059       34.3149714017
  C         9.9197390579        5.6184214152       30.4696179176
  H         9.0221411711        6.4849074345       32.1452542637
  H        10.3936476645        7.3393690012       31.7553218410
  H        11.7410181079        6.5734320040       34.3941883292
  H        10.0264962613        6.3919080395       34.5398367391
  H        11.2489803234        5.0500446017       35.0303473717
  C         9.6791514919        6.6787375363       29.3272195109
  H         9.2006886623        4.7471238659       30.5903284899
  H        10.8000283430        5.1025927492       30.2878428684
  C        10.1246876402        6.1657362313       27.9587298342
  H         8.6784809014        7.1101958981       29.2587841248
  H        10.2909732860        7.5306806512       29.5149542221
  C         8.9892047833        5.5653148728       27.1525674899
  H        10.9610439631        5.4999656596       28.0556444230
  H        10.4523787717        7.0719136614       27.4012509506
  C         7.8124676150        6.3731142112       26.6335470750
  H         9.4963731362        5.0595433170       26.3737068104
  H         8.5787811259        4.7670157725       27.8012970192
  C         6.8232411240        5.5832825600       25.6849421922
  H         7.2859957065        6.9161935830       27.4489445803
  H         8.3580430674        7.1687742858       26.0845933991
  C         6.4294617000        4.2598647324       26.3430421206
  C         7.4365925699        4.8502854979       24.4758139219
  C         5.6378672449        6.5118988296       25.3175928566
  C         6.7547155603        3.1869492228       25.6098748278
  C         5.7411129589        3.8924656709       27.5571911713
  C         7.3059710097        3.5123984275       24.3620308741
  C         8.0578892009        5.3655951430       23.3522654506
  H         5.9674224081        6.9472002360       24.3923791953
  H         5.5331026519        7.3229353564       26.0887916277
  C         4.4118481345        5.7597658021       24.8147045196
  S         6.4103307974        1.6748483951       26.2877479247
  C         5.7807760158        2.5161751735       27.6996979611
  H         5.4613650666        4.5903427401       28.3033723695
  C         7.8791333379        2.8674125663       23.2700745755
  H         8.3138564945        6.5029903135       23.3906144687
  C         8.5047313069        4.7299839427       22.2119112377
  H         4.6246764299        5.1624142257       23.9118372919
  H         4.1623061160        4.8087080484       25.3537986549
  C         3.1151890146        6.5659586068       24.5415055750
  C         5.4273842761        1.7797674513       28.9376402104
  C         8.5060234594        3.3854042582       22.1176747303
  H         7.9558398043        1.8139637138       23.3879133733
  C         9.0070097303        5.0952657878       21.0237626203
  H         2.6116000130        6.0855641285       23.7459499264
  H         3.3051216838        7.4876393565       24.1145009629
  C         2.3024945779        6.7064313869       25.7490265263
  C         5.5715540376        0.3901827587       29.1380633809
  C         5.1101373786        2.5633417106       30.1424487895
  C         9.0354853174        2.6712516314       20.9057872989
  C         9.3012462816        3.9655597077       20.2797960602
  S         9.3222512292        6.5689103142       20.2206771653
  H         1.5345088297        7.4722107809       25.6143598279
  H         3.0192466728        6.8916626571       26.6314039338
  C         1.5168233646        5.3980335110       26.1217262603
  N         5.8935627900       -0.5661823666       28.1509393026
  C         5.2994086352       -0.2085666161       30.3210526357
  C         4.9038834810        1.9816047021       31.3837514265
  H         5.1304101531        3.6512483098       30.1479518271
  C         7.8445122105        1.8680222199       20.3286683806
  C        10.2704165551        1.7902855907       21.1038484385
  C         9.6391465482        4.3446399074       18.9735639758
  C         9.6632180875        5.6721656866       18.8106043393
  H         0.8670378118        5.0569431382       25.3043118331
  H         2.2903651306        4.6714300820       26.3468650781
  C         0.6727517127        5.5905694769       27.3472628037
  S         5.9186104520       -2.0401973511       28.7833153326
  N         5.3848180652       -1.5782671998       30.2659713175
  C         4.9435788381        0.4761246258       31.4969560880
  H         4.8007965719        2.6069945235       32.3074524713
  H         7.2613837465        1.4431640825       21.1578328120
  H         8.1564359994        1.0291371743       19.6922553386
  C         6.9142377222        2.6656554049       19.4761112408
  H        10.3388227040        1.0884287591       20.2619357715
  H        10.2125893622        1.2157280117       22.0075809567
  C        11.6411003560        2.4999541492       21.2296919895
  H         9.6460859570        3.5490265653       18.2113128605
  C         9.9573693213        6.3772350056       17.5575082110
  H        -0.0225728986        4.7535753181       27.5424880382
  H        -0.0301511574        6.4432336705       27.1971588500
  C         1.5068491255        5.9891566698       28.6097262874
  C         4.8300701868       -0.2555593604       32.7477382324
  H         7.4461912122        2.8679938851       18.5305266069
  H         6.6995567351        3.6911609977       19.8670795951
  C         5.5878935982        1.9532322649       19.0618139408
  H        11.6335963623        3.3292924447       22.0028383492
  H        11.8707506900        2.9406924713       20.2911438251
  C        12.8114321637        1.4689196639       21.4712400751
  C         9.9735668143        7.7764687104       17.3798590487
  C        10.3204935929        5.5538210118       16.3961434599
  H         2.3583801310        5.3134723557       28.5923872229
  H         1.7423745537        7.0296324590       28.5338981788
  C         0.8574525834        5.8032628036       29.9614163296
  H         5.0332907194       -1.3325566295       32.6280899119
  C         4.6596918394        0.1085568707       34.0335139812
  H         4.9628715791        1.6502521596       19.8999971840
  H         5.7931198679        0.9698215483       18.5538109285
  C         4.8542597420        2.7943315648       18.0671012284
  H        12.5921355485        1.0243819058       22.3906882750
  H        12.7922152026        0.7398773909       20.6690714607
  C        14.1890781651        2.1477495356       21.4191109710
  N         9.7121824597        8.7983396432       18.3696039320
  C        10.2622991840        8.3509817201       16.1182849409
  C        10.6001249130        6.2290289255       15.1716005716
  H        10.4622623912        4.4759963169       16.4553637546
  H         0.3436964561        4.8986003921       30.1652952724
  H         1.5850949042        5.9950094931       30.7863238119
  H        -0.0139872222        6.4681189774       29.9778970860
  S         4.3705937040        1.6703993834       34.7297392252
  C         4.6888138341       -0.9944693746       35.0126376669
  H         5.0070715389        3.7892405445       18.3466586564
  H         5.2021321730        2.5559705208       17.0665920003
  C         3.3718451831        2.5687584952       17.9838428066
  H        14.2425739055        2.9495231635       20.6975449407
  H        14.9146424361        1.3988830093       21.2820565814
  C        14.5261001536        2.6035183498       22.8694120944
  S         9.8605152421       10.2499228991       17.6763775678
  N        10.3241192145        9.7567234368       16.1913050801
  C        10.5598914457        7.6882791350       14.9015957414
  H        10.8961196201        5.5883603914       14.3427313959
  C         4.1175074972        0.8161388821       36.3073885471
  N         4.2143936383       -0.5435177158       36.1964707131
  O         4.8161150866       -2.1869007962       34.8181642380
  H         2.9464232069        3.3744754349       17.2635378917
  H         2.9338169589        2.5979866602       19.0278364727
  C         2.9580190647        1.1826171248       17.3490950038
  H        13.7016978924        3.0948147198       23.2837699524
  H        14.6387800528        1.7316243442       23.4896419486
  C        15.7950536951        3.5047028489       22.9260827270
  C        10.7880332939        8.4259439903       13.7425939077
  S         3.5896391054        1.4421333235       37.8149668729
  C         4.2890765617       -1.4634595224       37.3408580026
  H         2.0094398210        1.4139663330       16.8356076409
  H         3.6226455744        0.9040832781       16.6125986785
  C         2.6231865591        0.0983565736       18.3769123983
  H        15.7190281452        3.8525627168       23.9833884065
  H        15.7321684042        4.3505899265       22.3737629649
  C        17.1166870383        2.8721092227       22.5255571846
  H        10.5546006553        9.4313067210       13.8146164160
  C        11.1187477219        8.1200951000       12.4804435946
  H         3.4304813621       -1.3082993665       37.9712795220
  H         4.1209841616       -2.4500488033       36.9340626111
  C         5.6221321754       -1.4143829842       38.0323648126
  H         2.6563843835        0.5415014748       19.4327139531
  H         3.3830486136       -0.6772859584       18.4284626588
  C         1.2993189857       -0.5670696026       18.1412328334
  H        16.9923676003        2.1620420775       21.6556170143
  H        17.7386166941        3.7689463165       22.2611725418
  C        17.5917659262        2.0978106236       23.6672088972
  S        11.3718658316        6.5882241259       11.7939673842
  C        11.2512158529        9.3397688187       11.5357444448
  H         6.4882208378       -1.3260836489       37.3189541343
  H         5.6722571343       -0.4780956790       38.6148158470
  H         5.7394167530       -2.2462800888       38.7029465252
  H         1.1706840382       -1.3977479097       18.8826468334
  H         1.2895247111       -1.0240299431       17.1488254566
  H         0.4371760144        0.1657002762       18.1385751634
  H        17.4358359379        2.6577411202       24.6395829620
  H        18.6740368288        1.9800890438       23.6490421756
  H        17.1531174752        1.1186521681       23.7404832901
  C        11.6491802698        7.4781417457       10.2817737806
  N        11.5655760420        8.8100594074       10.3727234235
  O        11.2251771086       10.5080041026       11.8496242679
  S        12.0786051381        6.6202459234        8.7822860546
  C        11.8691515145        9.6998158542        9.1675355205
  H        12.3810726778       10.5711296008        9.4899565028
  H        12.5532673328        9.2056274502        8.4440167859
  C        10.6139803597       10.0492853126        8.4051302784
  H        10.8014973929       10.8543071575        7.6760311861
  H        10.2678642784        9.2246885548        7.7871903676
  H         9.8697272620       10.4284341574        9.0792913193
  H         4.3368094676        1.6249834276       12.5577303033
  C         3.7516973846        2.5667317225       12.6983525081
  H         4.4957005503        3.3224372623       12.7172943890
  C         2.8638346273        3.0032494977       11.5087546506
  C         2.9162189757        2.4893831660       13.9551202774
  C         3.4868830314        3.0091319977       10.1057639468
  H         2.5167898964        4.0916080913       11.6888913186
  H         1.9849277450        2.3683854811       11.5984299772
  H         3.5717029871        2.2124206822       14.7847490127
  H         2.0136925189        1.7972914632       13.8599199064
  H         2.4124612984        3.4522911470       14.1806242400
  C         4.2002935087        1.7381193379        9.7188746308
  H         2.6998063870        3.2243975350        9.3816549194
  H         4.2710052608        3.8487699382       10.0464474831
  C         4.8588495771        1.8963984191        8.3475131864
  H         3.4221309280        0.9499160960        9.7511207464
  H         4.9065688938        1.4038600656       10.4958825360
  C         6.2192553173        2.5378436370        8.3024895713
  H         4.2549358523        2.0736012507        7.5094336179
  H         5.0654250744        0.9188612693        8.0116855957
  C         7.4881680345        1.9072596944        8.9401185429
  H         6.4609271291        2.8190298050        7.2729997339
  H         6.1454651183        3.3756804757        8.9373280424
  C         8.7169967412        2.8457031256        9.2197937662
  H         7.7320820121        1.0117007972        8.3899988967
  H         7.1422745730        1.5652995293        9.8832671777
  C         8.3260344971        4.1544448437        9.9164188498
  C         9.1338957936        3.5567570764        7.9328908177
  C         9.9207369950        2.1856787817        9.9553121267
  C         8.5552499842        5.2889345577        9.1308956704
  C         7.8566704141        4.5541483806       11.1890038620
  C         9.1271455561        4.9151942253        7.8854052590
  C         9.5729028990        2.9140837543        6.7294728765
  H         9.6043038543        1.8773631416       10.9658715839
  H        10.1380480115        1.2009916532        9.4959468690
  C        11.2553650686        3.1211204155       10.0390816258
  S         7.9747738842        6.7474609853        9.8202528195
  C         7.6056286115        5.8907313378       11.2910012902
  H         7.9394591399        3.8862942195       12.0158588120
  C         9.3853160790        5.5346802038        6.6655712031
  H         9.5782204657        1.8066945435        6.7512320176
  C         9.9778688193        3.5685300140        5.5792870919
  H        10.9611189961        4.1251561546       10.2601831865
  H        11.6720547459        3.2124156766        9.0314489812
  C        12.4088259623        2.7825008410       11.0714538087
  C         7.2680985515        6.5308536169       12.6056439403
  C         9.9287593213        4.9567678561        5.5053863930
  H         9.2970977286        6.5893118788        6.5948502696
  C        10.4097122824        3.1914730448        4.3487935300
  H        13.3768073562        3.3370893377       10.8140603766
  H        12.7426719318        1.7920526854       10.8681818930
  C        12.1212563447        3.0756659938       12.4320252894
  C         7.4331421658        7.9139265233       12.8684907527
  C         6.6823579080        5.7283840559       13.7090156350
  C        10.3853451803        5.6638337954        4.2415384343
  C        10.5993913768        4.3081710253        3.5117462235
  S        10.6229211568        1.6687466903        3.5725515851
  H        12.7604003188        3.7732329404       12.8824602018
  H        11.1628696957        3.6069254781       12.6437927283
  C        12.1980280698        1.8204658017       13.3086997352
  N         7.8565048858        8.9332093286       11.9590321308
  C         7.2471035051        8.4615671365       14.1458212699
  C         6.5399927054        6.2693792624       14.9801976682
  H         6.3913268355        4.6750182924       13.6008281526
  C        11.7056412318        6.4328420947        4.3323848284
  C         9.4009312924        6.6208436104        3.4806854733
  C        11.0989897063        3.8148712394        2.2618603826
  C        11.0883225085        2.4794924444        2.1529589601
  H        13.1016267288        1.2989139065       13.0395212141
  H        11.2771202627        1.1618647776       13.0005353985
  C        12.0610435619        2.2407156127       14.7841362062
  S         7.9967551187       10.3206406234       12.7788821536
  N         7.5423081400        9.7881830992       14.2529072950
  C         6.8365173148        7.7358888405       15.2581656722
  H         5.9272141324        5.6590706808       15.6933218914
  H        11.6385028170        7.3577302411        4.8995679685
  H        11.9201362274        6.8999792631        3.2674148002
  C        12.8122504633        5.5304394969        4.8820787471
  H         9.1226728338        7.4154589796        4.1639478948
  H         9.8573945725        7.0813479079        2.6055238773
  C         8.1446603778        5.8777098284        3.1279761577
  H        11.3173499568        4.6122684507        1.5173259842
  C        11.4054801085        1.7447821511        0.8868781413
  H        12.3054037747        3.2846738391       14.9725429251
  H        11.0239371728        2.1683819940       15.0359333169
  C        12.8952059287        1.3470819700       15.7857412515
  C         6.5938903967        8.4630600288       16.4955568638
  H        12.4332153909        4.8724686667        5.6593695137
  H        13.0244844923        4.8373418519        4.0945127885
  C        14.0648256854        6.2578874723        5.2729671678
  H         7.8058908892        5.3994205899        4.0040290802
  H         8.3206984151        5.1170138043        2.3667706340
  C         7.0266034123        6.8287058361        2.6524500478
  C        11.4434836423        0.3171811494        0.7616016273
  C        11.6364056091        2.5553435161       -0.3602263999
  H        13.9026710204        1.5884993108       15.5804121648
  H        12.5757437704        0.3333349765       15.5051121591
  C        12.5159692474        1.5529569011       17.2569521950
  H         6.7848063919        9.4995035767       16.4191154704
  C         6.3061218525        8.0258341738       17.7675514844
  H        13.8492945639        6.7348735848        6.2220597177
  H        14.2761348057        6.9835124984        4.4853842162
  C        15.2931882093        5.3332043463        5.3645417754
  H         6.9118911640        7.5502845174        3.4913143993
  H         7.1269399810        7.3948219930        1.7512809704
  C         5.7549664021        6.0653264735        2.4228097536
  N        11.4112093672       -0.5081713057        1.8240919368
  C        11.6654415962       -0.3214254784       -0.4160307357
  C        11.6780458185        1.8420717457       -1.5776085501
  H        11.5274001795        3.6073087861       -0.4263209114
  H        12.4583141100        2.6114733904       17.4694414038
  H        13.2526977924        1.0323761814       17.8956669696
  H        11.5756261484        0.9936466006       17.3724755439
  S         6.1035002848        6.3868905715       18.3784819647
  C         6.0927860316        9.0755002110       18.7693834142
  H        15.0220718440        4.5273276856        5.9795458338
  H        15.5025468125        5.0449469466        4.3194832330
  C        16.4732761210        6.1676177324        5.8651401722
  H         5.5095152602        5.4518127240        3.2883345303
  H         5.9483551816        5.3282189743        1.6731083702
  C         4.6022833352        6.9771671057        2.0326918927
  S        11.5798930567       -2.0098521092        1.2337272151
  N        11.8374286158       -1.6446224168       -0.3209249594
  C        11.7648197787        0.4349764597       -1.5849398208
  H        11.6344382049        2.3579446852       -2.4877028815
  C         5.7859307844        7.1153990614       19.9691772008
  N         5.7861242400        8.4737913095       19.9623072614
  O         6.1478381425       10.2832966003       18.4969760779
  H        16.7911553361        6.9182432968        5.0844311280
  H        16.1526962063        6.7350370798        6.7020317090
  C        17.6327710166        5.3381950071        6.2423841345
  H         4.8896967932        7.6096970358        1.1458754937
  H         3.9119081244        6.2288521232        1.5591707731
  C         3.9164224755        7.8605035976        3.0648265357
  C        12.1001831866       -0.3598654607       -2.7947088035
  S         5.4092172813        6.3377115317       21.4435255949
  C         5.7538193209        9.2399334956       21.1786479673
  H        17.2827979403        4.4706779899        6.8491177306
  H        18.0812178304        4.8532611252        5.4509235860
  C        18.7992855317        5.9646929470        7.0222692393
  H         4.5461582343        8.3408363142        3.8082481014
  H         3.1293638459        7.2355867215        3.4706895821
  C         3.0829111729        8.9978505430        2.4572564749
  H        11.8814609134       -1.4227363389       -2.7492290822
  C        12.7662650494       -0.0830894591       -3.9887933454
  H         4.9764886398        8.9782293849       21.7690824056
  H         5.5030530316       10.2938888929       20.8941023886
  C         7.1508220596        9.2244905560       21.7929407024
  H        18.9713504309        5.4501471368        8.0459162007
  H        18.5891036880        6.9699613184        7.1829854665
  C        20.0890234789        5.9900165855        6.2297015159
  H         2.0883164767        8.6102215503        2.1319978501
  H         2.7532249036        9.6084457464        3.2982491581
  C         3.7074661393        9.8528923349        1.4129934927
  S        13.2945308198        1.4127728636       -4.4568299813
  C        12.7904478438       -1.1654220545       -4.9920863541
  H         8.0121381824        9.2605785758       21.0275359556
  H         7.3465641583        8.4781032545       22.4756890102
  H         7.3282264294       10.2479127316       22.1884789703
  H        20.8981269877        6.4440012764        6.8178501930
  H        20.3302888612        4.9490543484        5.9368798937
  H        19.9513718559        6.5109784856        5.2994129392
  H         3.1741444248       10.7166930722        1.1141840877
  H         4.7020013251       10.2329091657        1.6896172910
  H         3.6652440243        9.2425903786        0.4756929888
  C        13.5944218168        0.6434147979       -6.1029137820
  N        13.3603853877       -0.6778426151       -6.0928413264
  O        12.4820554178       -2.3541510485       -4.7585262381
  S        14.4193229008        1.4119654671       -7.5101251994
  C        13.5102011080       -1.6157846185       -7.2415484382
  H        13.7528375102       -2.5440137520       -6.7880101548
  H        14.4821590511       -1.3317376893       -7.6859026243
  C        12.2243312999       -1.6158581005       -8.1697645053
  H        12.2893935429       -2.3652580695       -8.9469147686
  H        12.1127990579       -0.6678764977       -8.6682355907
  H        11.3462266091       -1.7427606013       -7.5852924163
