352
 i =   109900, time =    54950.000, E =        98.7156577219
  H        10.7740757129        4.5987776279       31.7506198819
  C        10.9868870088        5.6535822736       31.9788849509
  H        10.0825624083        6.0769335348       32.4401723820
  C        11.5331035840        6.4559445742       30.7947023683
  C        11.9902804466        5.6457831421       33.0834178247
  C        10.5781204771        6.5484138006       29.6690346472
  H        11.7869870611        7.4756006154       31.1094608869
  H        12.4858859641        5.9158836346       30.5017873064
  H        12.4706251241        6.6570821036       33.3074842148
  H        11.6256749378        5.2678094980       34.0026692116
  H        12.8468111568        5.0106398695       32.8824847442
  C        10.5893723894        5.3779343856       28.7387115035
  H        10.7787066285        7.4398916157       29.1450084963
  H         9.5616152381        6.6137090618       30.0868213660
  C        11.0588430386        5.6800580978       27.3240958456
  H        11.3188273977        4.6131891469       29.1925929325
  H         9.6669257028        4.8614294175       28.7087246923
  C        10.1284450060        5.1120007348       26.2479529164
  H        12.0298953284        5.2405933809       27.2490534070
  H        11.1807659579        6.7662297126       27.2114360990
  C         8.7594509278        5.9376836359       26.2480652748
  H        10.6834574663        5.0349359894       25.2722923951
  H         9.8811742618        4.1335155822       26.4658814212
  C         7.4946148298        5.2186641301       25.6182224319
  H         8.5407290501        6.3183802162       27.2101798252
  H         8.9677612855        6.7881398330       25.6733307911
  C         7.1612199862        3.8254995422       26.1892199625
  C         7.8483619335        4.5780556949       24.3098358283
  C         6.2062373700        6.0709078778       25.5408970093
  C         7.1847660185        2.7864767829       25.2891497277
  C         6.7427077653        3.4036437131       27.4220270615
  C         7.6279370456        3.2913047031       24.0818343413
  C         8.3933830315        5.1785008884       23.2231100552
  H         6.3731046533        6.9291457557       24.8780633124
  H         5.9306059831        6.4590885840       26.5027015533
  C         4.8535299932        5.3855332706       24.9531786459
  S         6.7399072308        1.2297021001       25.9794308486
  C         6.4920094438        2.0958255738       27.4460166646
  H         6.5863174867        4.1000571865       28.1613684836
  C         7.8394639333        2.6672878677       22.9207076239
  H         8.5507977373        6.2327388745       23.2615678410
  C         8.6116436612        4.5859832373       22.0288769371
  H         5.1344532389        4.9658429716       23.9917334530
  H         4.6067344251        4.5316103085       25.6149612678
  C         3.6532954706        6.3388155496       24.8749600679
  C         5.9849454376        1.4470609936       28.7169608973
  C         8.4682106727        3.2513166236       21.8766758660
  H         7.7952342910        1.5556000468       22.8983277050
  C         8.8952140241        5.0179368691       20.7859910510
  H         3.0065845873        6.0677100303       24.0943357617
  H         4.0766187519        7.3155309845       24.5471405163
  C         2.9597186190        6.6001708849       26.1239218839
  C         6.0133643686        0.0700664075       29.0225183607
  C         5.4716394637        2.2716735895       29.8464519651
  C         8.9011750451        2.5883484441       20.5653620861
  C         9.1929583852        3.9949186301       19.9607046892
  S         9.0335018067        6.5829207062       20.0649202342
  H         2.1722217450        7.3283498574       26.1246510299
  H         3.5866659425        6.8268395898       26.9690712731
  C         2.2698147919        5.3354040125       26.6136892106
  N         6.3785067973       -0.9546931566       28.0891700145
  C         5.6863004544       -0.4665441389       30.2227227079
  C         5.1726596208        1.6958615105       31.1258135397
  H         5.4695306725        3.3484641779       29.8398742203
  C         7.8066232287        1.8784546704       19.8038853449
  C        10.2593146937        1.7817534540       20.6330425081
  C         9.5995064524        4.4419424958       18.6566398973
  C         9.5996898809        5.7998044108       18.6306649982
  H         1.6954575708        4.7699119049       25.8873115893
  H         3.0399289407        4.6265359035       26.8516558067
  C         1.4022714109        5.5919373014       27.8199569183
  S         6.4319408323       -2.3027275580       28.9132410769
  N         5.8088178576       -1.8754633146       30.3052430362
  C         5.3779522098        0.2291195603       31.3709890109
  H         4.8165646172        2.3751254490       31.8774770033
  H         7.7074775011        0.8441636612       20.2730294032
  H         8.1751967061        1.6185942084       18.8642457034
  C         6.4684314725        2.5944264113       19.6137602654
  H        10.5440479141        1.3094412962       19.6602643734
  H        10.0602126258        0.9391444448       21.2836995107
  C        11.4709734286        2.6450885862       21.0586531597
  H         9.9081856610        3.7195848373       17.8967020850
  C         9.8181269222        6.6054111972       17.3879908573
  H         1.1264721978        4.5809648353       28.1864936200
  H         0.4790188300        5.9572884558       27.5058483275
  C         1.9434101123        6.4189685379       28.9756186782
  C         5.1585041346       -0.4410345413       32.5701275570
  H         6.5069966967        3.4663799772       18.8918611955
  H         6.2582338539        2.9217254117       20.6116768682
  C         5.4102598146        1.7150938347       18.9979360035
  H        11.2796284469        3.3193739093       21.9269212152
  H        11.7713181999        3.1889440700       20.1112684281
  C        12.7113262628        1.8099269255       21.3757492076
  C         9.8633776833        7.9987935410       17.2632680925
  C        10.1197017143        5.8854623134       16.1476015272
  H         2.4522164716        7.3237734472       28.6686816672
  H         1.1338928252        6.6268741957       29.7562657335
  C         3.0365027185        5.6802059223       29.7114683963
  H         5.4932988294       -1.4116675507       32.6242508839
  C         4.9167920887        0.0161167778       33.8521956896
  H         5.0248745877        0.9100876765       19.6701364499
  H         5.9275162488        1.2778790539       18.1806473477
  C         4.3012930813        2.4681070731       18.3136942020
  H        12.4962201754        1.1034661339       22.1949679364
  H        12.9527711509        1.1848002830       20.5535227660
  C        13.9362147231        2.5817209830       21.6581983891
  N         9.6485946599        8.8472387784       18.3618901821
  C        10.2610685126        8.6773742691       16.1474368649
  C        10.5371835860        6.4969339317       14.9753215578
  H        10.1377719446        4.7980470570       16.1771427998
  H         3.3598729856        6.3426975346       30.4829157033
  H         2.7731808075        4.7913847833       30.2430278360
  H         3.9155024777        5.4151766032       29.1724903387
  S         4.5589058194        1.6464747977       34.3718468399
  C         4.9006113625       -1.0524618756       34.9124339816
  H         4.0652377891        3.3994524922       18.8326215425
  H         4.5982599611        2.7435990754       17.2850056899
  C         2.9896840869        1.6562430648       18.1897954095
  H        13.7742153320        3.2883730573       22.5411232676
  H        14.1610350855        3.0867186064       20.7470466467
  C        15.1689405596        1.7770246116       22.1014150772
  S         9.7584831712       10.4071018759       17.9365247736
  N        10.2666601567       10.0791441909       16.4092949783
  C        10.5665560912        8.0185847125       14.9065552624
  H        10.7564780160        5.8809617323       14.1259048174
  C         4.2874182480        0.9052321323       35.9476471707
  N         4.3741438925       -0.4304147619       36.0047447442
  O         5.1090351725       -2.2494680360       34.7335701078
  H         2.3330836853        2.1589470885       17.4131530181
  H         2.3042943293        1.7557517215       18.9993685605
  C         3.2408965086        0.1516572497       17.8522399124
  H        14.9197579465        1.0734973409       22.8447369696
  H        15.4752803006        1.1499578026       21.2798056817
  C        16.2371687878        2.6688813625       22.6436781325
  C        10.9603288329        8.8298149115       13.7633391138
  S         4.0163468053        1.6802789447       37.4088622378
  C         4.2041116651       -1.1706471266       37.2528861503
  H         4.1120675092        0.0420330568       17.1838555416
  H         3.3816639825       -0.4745570373       18.7731092692
  C         1.9853323296       -0.3028199924       17.1304727833
  H        15.9234238169        2.8920638599       23.6975983916
  H        16.2276321034        3.6155683733       22.0740732916
  C        17.6042622728        2.0091980224       22.5564777577
  H        11.0685936571        9.8418594034       14.1070522138
  C        11.4034887493        8.4146590169       12.5379524373
  H         3.2976152861       -0.8045663520       37.6948856492
  H         3.9552770010       -2.2224346269       36.9825489524
  C         5.4669570569       -1.0764413335       38.0426278808
  H         2.0471222271        0.3331855023       16.3291342828
  H         1.1331479643        0.0247435175       17.6643010765
  C         1.9608390721       -1.7883356331       16.8428447510
  H        17.6368885983        1.1867447944       21.8340961784
  H        18.2356392265        2.7529221291       22.1263626429
  C        18.1827715318        1.5873247966       23.9331969220
  S        11.6989927555        6.8194168110       11.9466963238
  C        11.5976134980        9.5055236970       11.5389375155
  H         5.7521028730       -2.0478264851       38.4359806340
  H         6.3048108731       -0.7325560569       37.4951195550
  H         5.3812242099       -0.3823363151       38.9084461411
  H         1.4239131300       -2.0788005423       17.7385144438
  H         2.9190123513       -2.2716072813       16.6959967656
  H         1.3233720855       -2.0592071139       16.0317304455
  H        19.2528421778        1.3058476881       23.8405687430
  H        17.6285995688        0.7764392470       24.4760037035
  H        18.1211207957        2.4365765704       24.6388015043
  C        12.2402028754        7.6177060267       10.4423751372
  N        12.0908628618        8.9952089168       10.4109746406
  O        11.5954910909       10.7185037825       11.8587574273
  S        12.5360245106        6.8123386347        8.9290291760
  C        12.2797025353        9.8234623579        9.2099959413
  H        12.4332834907       10.8027784849        9.5614881082
  H        13.1593286440        9.4071122516        8.6984341215
  C        10.9657994894        9.8775222965        8.3627984103
  H        10.3674296631       10.5820217946        8.9009251417
  H        11.0185486506       10.1323380743        7.3457325941
  H        10.4016215652        8.9528892387        8.5105341749
  H         2.6622209120        3.2872367417       12.6236129985
  C         3.4202614745        2.5061467959       12.7600275937
  H         2.8094101855        1.6133475306       12.8205935232
  C         4.3591493558        2.3565432236       11.5560819238
  C         4.2211311238        2.5725788593       14.1007799907
  C         3.6752419604        2.0152570619       10.2158243565
  H         4.9651022926        1.4361687210       11.7340885898
  H         5.0553972748        3.2283864421       11.5159261471
  H         4.0901899182        3.6074144681       14.4393971556
  H         5.2611161952        2.3438028710       13.8943760135
  H         3.8281832651        1.9246082134       14.8616179829
  C         4.4173635667        1.1078884514        9.2145042683
  H         2.7665125890        1.4622428006       10.4231147332
  H         3.4769596456        2.9249551677        9.7335223470
  C         5.1921796859        1.7973098411        8.0655144936
  H         3.5888041144        0.5308717516        8.6948245313
  H         5.0748979174        0.3797777997        9.7232873740
  C         6.2951595883        2.7184714053        8.6622461514
  H         4.5329408073        2.4490364356        7.4175773517
  H         5.4969535129        1.0804890876        7.2859839514
  C         7.5980631795        2.0208831909        9.1100895700
  H         6.4951417047        3.4252211493        7.7624302809
  H         6.0065181934        3.3377118360        9.5146679410
  C         8.8399611972        2.9850672076        9.2897170271
  H         7.8275732349        1.2416165781        8.3667715708
  H         7.3989095341        1.3839754128       10.0296164702
  C         8.4112073451        4.3214275711        9.9152643838
  C         9.3352314047        3.7224193613        8.0690097312
  C         9.9060093147        2.3941355987       10.1882347193
  C         8.6546383070        5.4420700780        9.0954116584
  C         7.7733437999        4.6718653671       11.0834827235
  C         9.1759569577        5.0830460876        7.9096142601
  C         9.8731889184        3.0828279951        6.9188467239
  H         9.4872262795        2.0868767066       11.0864013252
  H        10.2836906188        1.4270833220        9.7450226073
  C        11.2359978314        3.2341728262       10.3691903153
  S         8.4077004926        6.8870954199        9.9715811541
  C         7.9925494480        6.0104788206       11.3678463268
  H         7.6913975364        3.9049345554       11.8008023186
  C         9.6293233470        5.7018453822        6.7858559198
  H         9.8868774136        2.0023884753        6.8602195631
  C        10.3179351236        3.6762513528        5.7943929883
  H        11.0639944841        4.2674778169       10.7041376514
  H        11.8528913857        3.2951130592        9.4319062545
  C        12.1132657469        2.5924859080       11.4259839487
  C         7.5963405535        6.7046491437       12.7022890962
  C        10.1643631092        5.0405134806        5.6354782087
  H         9.5750238104        6.7676609217        6.8980511231
  C        10.8220294083        3.2824461616        4.5782699570
  H        13.0072747122        3.1438900881       11.3111709192
  H        12.6040894728        1.6318842673       11.1394069248
  C        11.5547185883        2.5047981448       12.8893886623
  C         7.6224182936        8.1182177424       12.9285028901
  C         7.0886807960        5.9010685370       13.8557072152
  C        10.6177972911        5.7297008523        4.3175918658
  C        10.8822426526        4.3582024037        3.6627896875
  S        11.2598349552        1.7883758732        3.9250096495
  H        10.8175401295        3.2739983099       13.1501019568
  H        11.0368308028        1.5065682096       12.7961685768
  C        12.6032232868        2.2713403761       13.8484896706
  N         8.1082040665        9.1431936205       12.0496948822
  C         7.3350219692        8.6576954888       14.1795269775
  C         6.8886453623        6.4580184071       15.1341716438
  H         7.1435436123        4.7978920138       13.7116354215
  C        11.9118725029        6.4648897671        4.3550520796
  C         9.6872703259        6.4948254494        3.3975144382
  C        11.3863263466        3.9412711215        2.4181442086
  C        11.6490503168        2.5954545043        2.4363348840
  H        13.3499939536        3.0852043619       13.9116359596
  H        13.1796949478        1.4345671728       13.5535921057
  C        12.1157957935        2.0708784465       15.2506454082
  S         7.8311406056       10.6065604505       12.7161672135
  N         7.3941658852       10.0540748318       14.1923633156
  C         7.0464735678        7.9483441867       15.3366281708
  H         6.5705231091        5.7738676270       15.9256189202
  H        11.7019598118        7.4011610873        4.8477937847
  H        12.1977886689        6.7135261081        3.3591419378
  C        13.1101410601        5.6277085895        4.9482568180
  H         9.5166948486        7.5333318051        3.8154709837
  H        10.2271587025        6.6734864330        2.4387953943
  C         8.3348204781        5.7665927212        3.1308448774
  H        11.4581501515        4.6238760668        1.5603625691
  C        11.9022739725        1.7381575265        1.2164701996
  H        11.6298366418        2.9968387168       15.5016887880
  H        11.3632496395        1.2907363924       15.3065832889
  C        13.3524099168        1.9245701812       16.1073281428
  C         6.7708856569        8.6322704145       16.5426828222
  H        12.8816071638        5.1743991979        5.8875035920
  H        13.4594733519        4.7974969613        4.3054130972
  C        14.3697994126        6.5345591899        5.2243423768
  H         8.0251478508        5.2155767536        4.0290457523
  H         8.4261821715        5.0417135354        2.3304260265
  C         7.2649105950        6.7183131022        2.6948383614
  C        11.9471444718        0.3440834999        1.1163053210
  C        12.0951451931        2.4742324151       -0.0656469202
  H        14.2573441714        1.7238305463       15.4625996063
  H        13.2487015816        0.9479123246       16.6073658722
  C        13.6298744702        2.9650677426       17.2293025232
  H         7.0035973817        9.6714427942       16.5191545734
  C         6.3323931951        8.1451137125       17.7894817855
  H        14.1928296519        7.2563027631        6.0012193126
  H        14.3862112589        7.1340164843        4.3268591197
  C        15.6916963895        5.8310590082        5.2933634374
  H         6.9305091737        7.3363737154        3.4845278944
  H         7.6757051772        7.3901690247        1.9196218733
  C         6.0171611273        6.0084652385        2.0886754768
  N        11.6050609569       -0.5498471469        2.1258653838
  C        12.1492184893       -0.2903726060       -0.1053520801
  C        12.3086016179        1.7896617841       -1.2507152641
  H        12.1640590703        3.5631274808       -0.1302138326
  H        12.8229897588        3.6920464798       17.1659976007
  H        14.5683354737        3.5185508559       17.0160043563
  H        13.8883018699        2.6524825383       18.2767855479
  S         6.0506174795        6.4896021790       18.2517561440
  C         6.3409824069        9.1363081354       18.9553379457
  H        15.6642198587        4.7606029962        5.4606740563
  H        16.2941173973        5.9204500493        4.4223395577
  C        16.4210318955        6.4724690471        6.4954856410
  H         5.7018649702        5.2698721796        2.7735383876
  H         6.2810743739        5.5011889434        1.1372187293
  C         4.7558337133        6.8847197503        1.8166261166
  S        11.7332414935       -2.0776059392        1.5160005868
  N        12.1422136227       -1.6621613129        0.0476241173
  C        12.4236061035        0.3637285738       -1.3216193775
  H        12.3576669293        2.4094478423       -2.1062004527
  C         6.0697610697        7.0783373017       19.9067385559
  N         6.1731350321        8.4410441245       20.1116740448
  O         6.6208118658       10.3460845248       18.7990732801
  H        16.9346950750        7.4378716744        6.3575088109
  H        15.7751335796        6.4863694907        7.3843208366
  C        17.5324511383        5.4537013174        6.8451654720
  H         3.8098062491        6.3453303492        1.6360196049
  H         4.5996462435        7.6252552932        2.5442242622
  C         4.7983202417        7.7358600509        0.5976771278
  C        12.7118965694       -0.4155865836       -2.4694086204
  S         5.6957671847        6.0995627204       21.3510805593
  C         6.1490993922        9.0699295549       21.4307352347
  H        17.2088951061        4.7301575426        7.5717036986
  H        17.7716139577        4.7988131892        6.0070033764
  C        18.8474341385        6.0828032597        7.4022480203
  H         4.4850441024        7.1647301478       -0.3181895431
  H         5.7752635689        8.1314556775        0.3810938502
  C         3.7771817094        8.8415736689        0.4782618390
  H        12.4276046547       -1.4700211329       -2.4174385195
  C        13.3136766342       -0.1200072903       -3.6466323641
  H         5.5049913169        8.6310521242       22.1393858171
  H         5.6686782015       10.0519575891       21.2611391624
  C         7.5511834886        9.1415710573       22.1387280095
  H        19.2001306837        5.4157092594        8.1841952307
  H        18.6420009348        7.0681905385        7.8641335622
  C        19.8672771100        6.0934197124        6.2572307589
  H         3.4341501641        8.7242771345       -0.6080736590
  H         2.8798074588        8.7956460857        1.0970799070
  C         4.3377738663       10.2233676759        0.8688076289
  S        13.7519744270        1.4556391318       -4.3083483515
  C        13.4202166184       -1.1885645234       -4.5869116991
  H         8.3961097814        9.2919112750       21.5180092322
  H         7.6591039182        8.2369006482       22.7136949414
  H         7.6162862164        9.9944278507       22.7698930316
  H        19.4565058336        6.3415396856        5.3260211857
  H        20.7483283729        6.6908608942        6.5291959522
  H        20.1852289736        5.0440621054        6.1811130352
  H         4.5085721773       10.4393478736        1.9661604586
  H         5.2420341197       10.5064400132        0.3611196476
  H         3.5260321436       10.8539540934        0.5216611143
  C        14.0924427573        0.6364344870       -5.7746397704
  N        13.9825224860       -0.7223995041       -5.6969459758
  O        12.7669168208       -2.2103556191       -4.4894958307
  S        14.8564663265        1.2078362542       -7.2838499513
  C        14.1419163701       -1.6312831376       -6.7876121038
  H        14.4651141137       -2.4510558092       -6.2200777514
  H        15.0194527140       -1.5049590985       -7.4472326859
  C        12.8227907267       -1.8121586890       -7.6606661408
  H        12.6344178469       -2.8720001352       -7.9951694438
  H        12.7817298018       -0.9501495367       -8.3509589962
  H        11.8924681893       -1.5812805546       -7.0465437743
