352
 i =    48600, time =    24300.000, E =        97.9078995250
  H        10.3920903831        4.4891270290       32.7073958413
  C        10.4969612163        5.5449982733       32.8581454629
  H        10.0366290664        5.8809503079       33.7594926464
  C         9.8155448782        6.1367961968       31.6549840503
  C        11.9764169580        5.9808919508       32.9798179936
  C        10.5247631330        6.0820883423       30.3471197752
  H         8.8512118518        5.7638114383       31.4701174680
  H         9.6271074852        7.1688515458       32.0144571874
  H        12.5060695334        5.0216833119       32.9227443485
  H        12.4388652797        6.6606063302       32.2264739107
  H        12.2269737386        6.2310981246       34.0069953356
  C         9.5064296504        6.0936378822       29.1718590490
  H        11.1646068124        5.2671766538       30.3091513855
  H        11.1160400842        6.9763613894       30.2261037960
  C        10.2686091106        6.0971751730       27.7864693184
  H         8.8572268148        5.2561577481       29.3657138122
  H         8.8330609443        6.8660948521       29.1840887805
  C         9.4297183247        5.3488033396       26.6967463126
  H        11.2367935508        5.6115117879       27.9222787635
  H        10.6068120172        7.0907851463       27.4340824897
  C         8.2335191641        6.1665225911       26.2138929948
  H        10.0772138085        4.9381768368       25.8791445235
  H         9.1670317401        4.4205804101       27.2131465883
  C         7.1773045736        5.4559049261       25.2987845353
  H         7.8102483972        6.5818258482       27.1779359294
  H         8.5479140876        6.9410997041       25.6151293533
  C         6.7052604220        4.1125122811       25.9676830486
  C         7.6249697952        4.7469885075       24.0747958347
  C         5.9348570069        6.3524360996       25.1402790931
  C         6.9599259901        2.9670893916       25.1882789421
  C         6.1690003204        3.6721030258       27.2028239807
  C         7.4973400149        3.3926218390       23.9347591045
  C         8.0856796138        5.3687722401       22.8532914667
  H         6.2147529803        7.2050764808       24.4616360997
  H         5.6505016407        6.7828976375       26.1455940336
  C         4.6753327370        5.6437610857       24.5270086267
  S         6.5850658523        1.4625234147       25.8753851111
  C         6.2007455625        2.2893935470       27.3175743700
  H         6.0433616386        4.4863270510       27.9484010714
  C         7.8269873001        2.7602033837       22.7886688747
  H         8.2607176909        6.4245090990       22.7592214131
  C         8.5151727250        4.6879320628       21.7646757933
  H         4.9889672339        5.6048977302       23.5199422819
  H         4.5019100460        4.7205535200       25.0275878298
  C         3.3916166399        6.4069760399       24.6794073368
  C         5.8080276446        1.5533120443       28.5317466750
  C         8.3812821788        3.3017672351       21.6655337337
  H         7.7598502052        1.6423984505       22.7921148266
  C         9.0954336983        5.0197189674       20.5641359615
  H         2.6488527336        6.1647917751       23.8436476743
  H         3.5721469287        7.4799810026       24.5759160504
  C         2.7833936585        6.2803771931       26.1000172287
  C         5.9842616069        0.1659218913       28.7976029068
  C         5.4850012092        2.4208826792       29.7276098213
  C         8.8209696447        2.5655902733       20.4473052368
  C         9.1504444680        3.8993689531       19.7614482805
  S         9.3862062762        6.5574238143       19.8115734836
  H         2.0427525723        7.0035852517       26.1382138281
  H         3.5046655802        6.5742574148       26.7600237720
  C         2.0940078078        4.9740366699       26.5792326156
  N         6.3895189300       -0.8093221754       27.9057102319
  C         5.6897891271       -0.3613936159       30.0969582716
  C         5.2698450529        1.9349774939       30.9635253195
  H         5.4046070890        3.4513173072       29.6350938544
  C         7.7088384457        1.8132063661       19.6726504886
  C        10.0852196065        1.7557691603       20.7377354991
  C         9.6305213291        4.2527169057       18.4867854564
  C         9.7253922579        5.6331263564       18.3411032083
  H         1.1640392693        4.7961761793       25.9079968248
  H         2.6912074686        4.0791665406       26.4774163044
  C         1.7472905384        5.1711545191       28.0918392980
  S         6.3914141136       -2.2785990747       28.6466648916
  N         5.9293933974       -1.7552624990       30.1491943362
  C         5.3493969348        0.4509863583       31.2586240585
  H         4.9614975761        2.5197698550       31.8757363453
  H         7.5984937148        0.8137196318       20.1031560621
  H         8.1363105779        1.6138777246       18.7063453793
  C         6.2824082406        2.4024708710       19.5397282740
  H        10.4503498082        1.2266730674       19.8729486153
  H         9.9424088785        0.9597766780       21.4577405283
  C        11.3452364613        2.6455516516       21.1626632074
  H         9.8450277177        3.4805969795       17.8367734366
  C        10.0578629953        6.2974801969       17.0284043297
  H         1.1948119832        4.2483351072       28.2847963049
  H         1.0970203546        6.0319678657       28.2706581854
  C         2.9519471980        5.1184978641       29.1156658256
  C         5.3077134937       -0.2211655124       32.5380809419
  H         6.2051922384        3.4923623695       19.4723725313
  H         5.7708887913        2.0702311052       20.4818533938
  C         5.6413236295        1.7532070340       18.3551670914
  H        11.1261981467        3.2140375384       22.0573591354
  H        11.7027200655        3.2657578643       20.3866958300
  C        12.4936212646        1.7380783519       21.6528442225
  C        10.1700982481        7.7418806515       16.8348574975
  C        10.2544051805        5.5240365615       15.7886994800
  H         3.6008872614        4.2771406806       28.9449402459
  H         3.5887259042        6.0639701830       29.0424647917
  C         2.5789828743        5.1312960286       30.6046984187
  H         5.7581556514       -1.1975529742       32.4548503168
  C         4.9773443834        0.0757037771       33.8487898300
  H         5.7968579255        0.6927931249       18.3985226659
  H         6.0222279883        2.2634837190       17.4766484276
  C         4.1293068095        2.1025586008       18.4409591446
  H        12.2870891721        1.0330706603       22.4731489005
  H        12.8277281802        1.1643169183       20.7705262142
  C        13.6346362748        2.5537110772       22.1984836564
  N         9.8910432901        8.7314898846       17.7732480175
  C        10.3935461774        8.3236555640       15.5780709957
  C        10.2928346680        6.1788991447       14.5441355793
  H        10.3043195700        4.4280583615       15.7854517755
  H         1.5829690438        4.9737474431       30.6274807966
  H         3.0568896946        4.3794765876       31.2360419859
  H         2.9136113186        6.0759665324       30.9361368012
  S         4.3409164297        1.6283334443       34.3703161128
  C         5.0138648919       -0.9874526786       34.8865789629
  H         3.9392406912        2.7868751255       19.2589127687
  H         3.8805974046        2.6364090334       17.5154948110
  C         3.3363876509        0.7974755735       18.6773620924
  H        13.2652866319        2.8609389634       23.1593454527
  H        13.7534066135        3.3978876823       21.5200240922
  C        14.9451426894        1.8093736648       22.4689871687
  S        10.0818434526       10.1807234842       17.0720557924
  N        10.4144909889        9.6895976597       15.5622258671
  C        10.6118999518        7.5977127704       14.4000125642
  H        10.3776113470        5.4486037386       13.6840106053
  C         4.3494090504        0.9152028216       36.0128404088
  N         4.5918886688       -0.4253704672       36.0515114915
  O         5.3705006964       -2.1502501128       34.7137088369
  H         2.3691237210        1.0738399536       19.2060309375
  H         3.8976136308        0.2304072060       19.4226831469
  C         3.0599741457        0.0265795906       17.4693514184
  H        14.8585799092        1.5558410622       23.5544944429
  H        15.0235436442        0.8946346761       21.9162893400
  C        16.0645852562        2.8851783544       22.1206170473
  C        11.0065156957        8.2741867884       13.1843247280
  S         3.8329247025        1.7747784639       37.4540405343
  C         4.5639348341       -1.1775597201       37.3177275935
  H         2.7011243902        0.6191978211       16.6672596144
  H         3.9765505098       -0.4549896328       17.2270402315
  C         2.1139789905       -1.1249694777       17.7520850086
  H        15.8418420053        3.7684401113       22.6750261450
  H        16.0271990083        3.2333217526       21.1044557089
  C        17.4570120169        2.4156085313       22.6314075825
  H        10.7154933439        9.2718276739       13.1723540912
  C        11.5476690065        7.8750744906       11.9870511701
  H         3.7527617903       -0.7923447076       37.9380936625
  H         4.1328358422       -2.1693643516       37.1233305190
  C         6.0318947094       -1.2215355889       37.9392625064
  H         1.1544076591       -0.8267000106       18.1388753569
  H         2.5673422425       -1.6565362715       18.5962823969
  C         1.8714579198       -2.0758374189       16.5696538172
  H        17.6731607082        1.3895938452       22.3359347235
  H        18.2691180603        3.0622393845       22.2320160913
  C        17.4452733005        2.4404775036       24.1156293990
  S        11.8654370990        6.2537404117       11.5096218466
  C        11.6462697005        8.8948005061       10.9021193114
  H         5.9678868101       -1.2812538297       39.0450485242
  H         6.5344146758       -2.1406536300       37.7014850261
  H         6.7429187329       -0.4991692155       37.5247752857
  H         1.2818704828       -2.9258648443       16.9104887581
  H         2.6705797397       -2.4636395488       16.0534775281
  H         1.3297193429       -1.6026951656       15.7432341151
  H        17.0714481884        3.4248317232       24.5399161633
  H        18.3797669877        2.2372599865       24.5838736927
  H        16.8100585842        1.6983028388       24.5869705331
  C        12.4021540120        6.9431641006       10.0254244278
  N        12.1908883418        8.2730457516        9.8482433391
  O        11.2769650995       10.0431447107       11.0436132780
  S        12.7053196698        6.0313122091        8.4808313560
  C        12.3587140052        9.0875810772        8.6685662545
  H        12.3482897248       10.1339848827        9.0252444575
  H        13.2517645965        8.8186066142        8.1274469805
  C        11.1030013725        8.9810311302        7.8028181873
  H        10.7257409124        9.9651526361        7.6235617352
  H        11.4050741349        8.6248984915        6.8250816081
  H        10.3727751447        8.2825970873        8.2203872383
  H         4.9984896324        2.6178691369       12.6554065676
  C         3.9099463319        2.8867154342       12.7398874721
  H         3.8474968831        3.9681156186       12.8021040095
  C         3.0789560372        2.3349470000       11.5287909979
  C         3.3196442719        2.2440114124       14.0062550736
  C         3.4993434667        2.7239987444       10.1616333767
  H         2.1256154446        2.8648265480       11.6218327710
  H         2.8519264384        1.2744888156       11.5226173618
  H         3.6538704007        1.2273135314       14.1998473043
  H         2.2573046802        2.4139291502       14.1098928377
  H         3.7465793925        2.8911246810       14.7852577542
  C         4.3323718774        1.5919637061        9.5561618913
  H         2.7031000965        3.0575039320        9.5662808761
  H         4.1598350029        3.5910013737       10.3065090698
  C         5.1319071122        1.8755318948        8.3181085022
  H         3.6788477092        0.7969414813        9.2295893257
  H         4.9764466554        1.2893344686       10.3229002206
  C         6.4263559104        2.6837368159        8.5913931455
  H         4.4580146294        2.3938657572        7.6539543878
  H         5.1569452400        0.9420199547        7.8279090343
  C         7.6073132106        1.8905485720        9.0492940530
  H         6.6923596530        3.2168915127        7.6818522001
  H         6.2857089954        3.5212678246        9.2075034269
  C         8.9728757699        2.6678271676        9.2527985781
  H         7.8585720228        1.0355607503        8.3473094698
  H         7.2589287035        1.4450662621       10.0102012743
  C         8.5571727919        4.0069467674        9.8846179157
  C         9.4055507956        3.3648769527        7.9788668940
  C        10.0195219894        2.0169316191       10.0914094941
  C         8.8879293049        5.1089217654        9.0806768353
  C         8.0843160909        4.3826550316       11.1684017289
  C         9.3793651250        4.7430887207        7.8686016824
  C         9.8152174323        2.7570545668        6.7876960090
  H         9.5296090361        1.6357969726       11.0357221571
  H        10.2794536027        1.1326396671        9.5774041554
  C        11.3315750638        2.7876256981       10.4110415348
  S         8.5184713954        6.6355456495        9.7427893941
  C         8.0114237253        5.7593879437       11.1353315906
  H         7.8519875368        3.6221765733       11.8417169977
  C         9.7205717631        5.3517027244        6.7552967495
  H         9.9578298336        1.6735486085        6.7561009662
  C        10.1823207341        3.3926244999        5.6080545303
  H        11.0870305016        3.7047760716       10.9290907407
  H        11.8673035609        3.0847084260        9.5069885931
  C        12.3613898095        1.9215621768       11.1465303469
  C         7.6451279283        6.5357876766       12.3565444524
  C        10.1060445922        4.7689942130        5.5498306628
  H         9.7275483383        6.3998786348        6.7110683506
  C        10.6546389997        3.0507308614        4.3652741387
  H        13.4069464133        2.1891375314       11.0915198058
  H        12.2259710379        0.9168700916       10.7476785532
  C        11.9219032801        1.7424599388       12.6109810515
  C         7.6386738056        7.9544025894       12.5037245460
  C         7.2521851632        5.7681927609       13.5733897797
  C        10.4839094578        5.4770216972        4.2674187283
  C        10.7353734433        4.1594029662        3.5276694524
  S        10.8750263342        1.5913538510        3.6645607897
  H        11.0702519494        2.2778701718       12.9592255523
  H        11.6703380749        0.6798296526       12.6901764796
  C        13.0285212284        2.0947557013       13.6046975774
  N         7.9494662372        8.9634904583       11.5295114003
  C         7.2775365436        8.5528933964       13.7076997896
  C         7.0179543713        6.3517882659       14.8220512080
  H         7.3650983983        4.7754451103       13.6339975408
  C        11.7634252509        6.4033184175        4.3535679080
  C         9.2665112745        6.2884574545        3.7177118411
  C        11.1680013670        3.7615337869        2.2497139707
  C        11.2366572551        2.4297359952        2.1870191440
  H        13.5590043541        2.8848652906       13.0599140262
  H        13.7038668895        1.1967122334       13.7273619795
  C        12.4016738431        2.5173988652       14.9286445924
  S         7.7468701826       10.4461504752       12.2128345164
  N         7.3095889777        9.9275794423       13.6847062698
  C         6.8677049468        7.8445287689       14.8969217541
  H         6.7947504121        5.6633383160       15.5728077393
  H        11.7371032179        7.1295838680        5.1573223182
  H        11.8346401643        7.0304550891        3.5162246941
  C        13.0690101955        5.5789265887        4.5305003671
  H         8.7479284992        6.7998705356        4.5517396906
  H         9.6679520646        6.9637017880        3.0197299524
  C         8.0797459075        5.5332403354        3.0171847294
  H        11.2905142409        4.5688113250        1.5542116210
  C        11.6198652573        1.6250730972        0.9652151682
  H        12.3348149288        3.6155642449       14.8976482078
  H        11.3493606059        1.9631917475       15.0432230762
  C        13.4452550369        2.2263870075       16.0087618921
  C         6.6322375273        8.5385632615       16.1239979577
  H        12.9474190577        4.8245882709        5.3455120686
  H        13.2472894241        5.0057600237        3.5979497731
  C        14.3522052961        6.4101816710        5.0333873446
  H         7.8445844051        4.6832532144        3.6438960253
  H         8.4265656069        5.0458866857        2.1296600059
  C         6.9897550425        6.5019311355        2.6313978034
  C        11.6110349730        0.1947835296        0.8694312808
  C        12.0851676420        2.3785869953       -0.2255559883
  H        14.4317630487        2.6184830010       15.6917721041
  H        13.4434297073        1.0838956340       16.0144487967
  C        12.9493311598        2.5518626377       17.4020070730
  H         6.6192690993        9.6467222973       16.0871840666
  C         6.3858728168        8.1735570988       17.4538975961
  H        14.0013543053        6.8665213480        5.9443384588
  H        14.5856371481        7.2618370346        4.4222862827
  C        15.5621799187        5.4502706396        5.2258404257
  H         6.9239422793        7.0927924487        3.5030829365
  H         7.3596822340        7.0938758017        1.7689232841
  C         5.6392487591        5.8187201935        2.4032536801
  N        11.3017117226       -0.7041779649        1.9086377504
  C        12.0794300288       -0.5254138051       -0.1896511766
  C        12.3409579331        1.6540006572       -1.3775516758
  H        12.1210221904        3.4289349576       -0.3115510652
  H        13.2635800275        1.7860845218       18.2011233250
  H        11.8047679959        2.6743594306       17.3487729329
  H        13.3725851485        3.4727418272       17.6531795433
  S         6.0691379676        6.6097995502       18.0387472534
  C         6.2844630901        9.1976780296       18.5140772912
  H        15.3048850116        4.6180042185        5.8519327707
  H        15.9521977703        5.0434555098        4.2468040777
  C        16.6433559998        6.2385746624        5.9619754560
  H         5.2646538009        5.5199743046        3.3795053168
  H         5.7072593742        4.8673061776        1.8803179391
  C         4.7220707855        6.8061159835        1.6754513323
  S        11.4010309146       -2.2813658203        1.3479963360
  N        12.0282752845       -1.9200877526       -0.0894359023
  C        12.3333354852        0.1643144256       -1.3959531839
  H        12.4427572234        2.2074777212       -2.2935263916
  C         5.8678067180        7.2688266000       19.6594674968
  N         6.0261935988        8.6266346386       19.7346154265
  O         6.3492270439       10.4124111767       18.2671014473
  H        16.9212728450        6.9942260390        5.2552869607
  H        16.3143759808        6.9069105228        6.7893152663
  C        17.7434549636        5.2756036370        6.4086788915
  H         5.1368401167        6.9951890680        0.6917185574
  H         3.7418914938        6.2905087725        1.4369317683
  C         4.5005108435        8.0799754785        2.5408669199
  C        12.7446512275       -0.6248729547       -2.5933775830
  S         5.2956125928        6.4063780782       21.0337866598
  C         6.1309871307        9.4066801627       20.9713237123
  H        17.2212747295        4.5514202458        7.1406413656
  H        18.1115129035        4.6890007239        5.5559018356
  C        18.7503791736        6.0169393917        7.2313220540
  H         5.4126592642        8.6915069888        2.5299587590
  H         4.1798013040        7.8237824136        3.6179313833
  C         3.3104243169        8.8727287209        2.0366367737
  H        12.4832110756       -1.7006171404       -2.6274365995
  C        13.1698769201       -0.4204087265       -3.9258634840
  H         5.5838466068        8.8969842801       21.7729771493
  H         5.8804371678       10.4174522454       20.7536975150
  C         7.6536025361        9.4589953912       21.3266359303
  H        18.9462671960        5.5759716542        8.1718470867
  H        18.3471012339        6.9716280084        7.4401008198
  C        20.0530055511        6.2462590041        6.5605847539
  H         2.3056807950        8.4420883407        2.0786330767
  H         3.2959456364        9.8432895591        2.5943907695
  C         3.4144558649        9.3392523480        0.5566294683
  S        13.6590245363        1.0652843879       -4.5078485729
  C        13.1692051311       -1.5659743414       -4.9078246770
  H         7.8146154775        8.7090294117       22.0924429771
  H         7.8945965440       10.4921686294       21.6834841474
  H         8.3118320207        9.1554595694       20.5224887180
  H        20.6587607359        5.3265687154        6.4215133865
  H        19.8724665984        6.5366797861        5.4827883303
  H        20.6117149060        7.1101922231        7.0050624115
  H         4.3989803643        9.7199925167        0.4971375455
  H         3.2991294391        8.4296063140       -0.0677010364
  H         2.7343851015       10.0243975231        0.0907275260
  C        13.8250560375        0.2790866637       -6.0616749561
  N        13.5994107478       -1.0432633309       -6.0924322662
  O        13.0541323339       -2.7269629884       -4.6779107325
  S        14.4920433280        1.1194982442       -7.5114951546
  C        13.9527970839       -1.8799172986       -7.2528658479
  H        14.0810426484       -2.9233002563       -7.0975655189
  H        14.8945775986       -1.5006235641       -7.7285313339
  C        12.8874954556       -1.7170716471       -8.3797030189
  H        13.0085559127       -2.5504602904       -9.0382604009
  H        13.0414927442       -0.8600184062       -8.9786023678
  H        11.8471902888       -1.5930496202       -8.0401597238
