352
 i =    83300, time =    41650.000, E =        98.7161470760
  H        12.7812472519        6.1382366636       32.7287004377
  C        12.1088164433        5.2775851640       32.4559006910
  H        12.7591122863        4.4927712285       32.2263624091
  C        11.1169946146        5.6782021074       31.4167610358
  C        11.4346134509        4.9955255510       33.8198373770
  C        11.6053541460        5.6794622221       30.0004951581
  H        10.3371077257        4.9595600093       31.4730409085
  H        10.6078241465        6.6884427320       31.4596580899
  H        10.7835585464        4.1700444391       33.8010416512
  H        12.0589418041        4.9660216847       34.7333905283
  H        10.8016930797        5.8096612699       33.9271596076
  C        10.4972638738        5.9461313864       29.0581121940
  H        12.0779938836        4.7021982903       29.7627979944
  H        12.3296187716        6.4424825427       29.8498585556
  C        10.9049923570        5.7336790029       27.5937885443
  H         9.5924109033        5.3736666673       29.2225096834
  H        10.1685527173        6.9473289681       29.1597295911
  C         9.8475290995        5.0680323056       26.6979141591
  H        11.8350004440        5.2089102240       27.5824197511
  H        11.0007830070        6.7500853580       27.1068921428
  C         8.5952652789        5.8718610862       26.4582345524
  H        10.2841601790        4.7498855508       25.7640731638
  H         9.6714259966        4.0292426443       27.1062536467
  C         7.4619312267        5.1719234852       25.6075026411
  H         8.0742423841        6.2001869228       27.3705811300
  H         8.7478078358        6.7902221768       25.8541028068
  C         7.0781321422        3.7782605047       26.2482376085
  C         7.8210723135        4.4763446121       24.3410010173
  C         6.1677030422        6.0598663444       25.4779408806
  C         7.1215407427        2.7337808442       25.4020936320
  C         6.5618339556        3.3587198439       27.5504927284
  C         7.5697444456        3.1436694382       24.1808808864
  C         8.2825674195        5.1242913222       23.2153157805
  H         6.4181034705        6.8158231535       24.7482470728
  H         5.9045107366        6.5819713859       26.4183983138
  C         4.9940517579        5.2991164322       24.8845894626
  S         6.6223725533        1.2429342691       26.0833247717
  C         6.3012308012        2.0065656010       27.6213361932
  H         6.5011051242        4.0541369933       28.3572922487
  C         7.8968014392        2.5245785922       23.0099014464
  H         8.3960699486        6.2150692887       23.2907604530
  C         8.5020965430        4.4976859930       22.0567419162
  H         5.2929658452        5.0629408714       23.8877824326
  H         4.6382733618        4.4290949840       25.4996998926
  C         3.7070510176        6.0714880427       24.8645391776
  C         5.8208018155        1.3166493442       28.8580044023
  C         8.3878455617        3.1584366033       21.8792204821
  H         7.6184976261        1.5032436595       22.7683893513
  C         8.9101021631        4.8754150432       20.8075881159
  H         3.1737932221        5.6838110426       24.0112684635
  H         4.0098332930        7.0154389238       24.4254090883
  C         2.8189266307        6.2614253381       26.1494819341
  C         5.8765925679       -0.0801207006       29.0546863496
  C         5.4855018195        2.0426784583       30.1027827529
  C         8.7609881487        2.4976456549       20.5670520161
  C         9.1140144972        3.8467034656       19.9809439319
  S         9.2674889580        6.3584233188       20.1122800269
  H         1.9592812098        6.9491892595       25.9042656670
  H         3.3767845700        6.7520962194       26.8820562899
  C         2.1722501954        5.0081154940       26.7238454611
  N         6.2491318122       -1.0285462085       28.0605485416
  C         5.5911527360       -0.7126079655       30.2905416118
  C         5.2572285723        1.4836056953       31.3504882162
  H         5.4282720822        3.1292400901       30.1994315257
  C         7.7738315412        1.9680348387       19.5544673982
  C         9.9942541751        1.6448451322       20.8480361762
  C         9.5046353001        4.2261850541       18.6843380493
  C         9.6135191718        5.5479144034       18.6078676594
  H         1.4913790384        4.5384719710       26.0289116983
  H         2.8499463246        4.2615044626       26.9704397897
  C         1.3475085149        5.4295163526       27.9322361162
  S         6.2772876645       -2.4819348989       28.7947191360
  N         5.6046916259       -2.0820509419       30.2020281088
  C         5.2214910166       -0.0161230110       31.5163092660
  H         4.9793253462        2.1065399940       32.1065398034
  H         7.7166881843        0.9231622505       19.7596791842
  H         8.0263812902        1.9776765471       18.5251071424
  C         6.3150537225        2.5816448240       19.7207423748
  H        10.2819671001        1.1297089604       19.8734743850
  H         9.8267571730        0.7816553417       21.5222128218
  C        11.2636660115        2.3801933219       21.3756688342
  H         9.6214169658        3.4860483230       17.9395733422
  C        10.0540069613        6.3094683406       17.3940724899
  H         0.4508456660        4.7335150242       28.0562868523
  H         0.9009177983        6.4296209780       27.6928599746
  C         2.2918883018        5.5780430219       29.1630296336
  C         4.9826676294       -0.7732834534       32.7212318536
  H         6.2886634171        3.4589770471       20.3745421576
  H         5.7008129055        1.8787079929       20.2018933721
  C         5.5505641874        2.8788553363       18.4522521852
  H        11.1210179845        2.9986265293       22.3396029154
  H        11.3803083965        3.1771520680       20.6670070294
  C        12.3986481393        1.4110648374       21.4784173869
  C        10.1090855907        7.7201913327       17.2469556178
  C        10.2686331246        5.6455508717       16.1235080794
  H         3.0507654413        4.8264074077       29.0871292847
  H         2.7833750918        6.5712757030       29.1585015661
  C         1.6525046733        5.4382089788       30.5793456532
  H         5.2929515872       -1.8026357377       32.5660916153
  C         4.5947437176       -0.4230424276       33.9540460842
  H         5.9875861871        2.4053075022       17.5578359675
  H         5.6029871533        3.9228533893       18.4683570404
  C         4.0739588334        2.3689593579       18.7139035279
  H        12.1534508109        0.7301086303       22.2760997662
  H        12.3980506373        0.7326369290       20.6381235954
  C        13.7734624941        1.9991119944       21.5629193209
  N         9.9977679213        8.5639406294       18.2401632083
  C        10.3848788999        8.3422296340       16.0174635238
  C        10.4949412953        6.2261988967       14.8688253292
  H        10.2179499151        4.5762766016       16.0952133526
  H         1.4719622374        4.3840254510       30.6857025723
  H         2.4561560944        5.6193537026       31.2873327131
  H         0.7428365494        6.0250605795       30.8657111784
  S         4.2413607948        1.1651416206       34.3720827487
  C         4.4341036635       -1.4079033645       35.0081273013
  H         3.7300531395        2.6069926835       19.7152344056
  H         3.4063425429        2.9228703024       18.0146206384
  C         3.9335428293        0.8324223852       18.5866054240
  H        13.8751427770        2.7999380985       20.8393244496
  H        14.5359461784        1.3136931399       21.0661847008
  C        14.2407428230        2.4109824913       22.9992797029
  S        10.0357465022        9.9958975920       17.6065509138
  N        10.3949783848        9.6582778788       16.0993495133
  C        10.5926598830        7.6901191312       14.7572282195
  H        10.9337155521        5.6379053049       14.0221699195
  C         4.1134104594        0.5390379552       36.0764181303
  N         4.0655027771       -0.8106574413       36.1408663430
  O         4.6295256855       -2.5883919155       34.8862135972
  H         4.1813924184        0.2901964217       19.5120331108
  H         4.6370453469        0.4041965794       17.8255097624
  C         2.4606377198        0.4479324955       18.2781760809
  H        13.4181007052        2.8983038824       23.5185002464
  H        14.5147158976        1.5906321219       23.6492991636
  C        15.3702144508        3.4546469867       22.9016463409
  C        10.7437720852        8.4971562045       13.6132895580
  S         3.6471245727        1.4578955136       37.5788872294
  C         3.8930725888       -1.5834006711       37.4281194926
  H         1.8997704218        1.1012151413       18.9485677602
  H         2.2270352856        0.5647042929       17.1807454580
  C         2.1236568596       -1.0044111642       18.7323641040
  H        15.5928216793        4.0696760531       23.7735342124
  H        15.2027415618        4.2516584524       22.1417847669
  C        16.7042539616        2.7493680227       22.6259944512
  H        10.4752163361        9.5655794704       13.6430738058
  C        11.1905975016        8.1643271662       12.3928828225
  H         3.2561429574       -1.0313339274       38.0729119634
  H         3.3588973065       -2.5314596480       37.3962561660
  C         5.2433122717       -1.6966852756       38.2250054827
  H         1.0397035231       -0.9409167418       18.6907197924
  H         2.3811595284       -1.2440208064       19.7458788039
  C         2.6084483520       -2.0033889487       17.6631001662
  H        16.5289219587        1.8930348812       21.9815471953
  H        17.4742643891        3.4149292547       22.2271153457
  C        17.2463100592        2.2210361015       23.9726040797
  S        11.7349496659        6.6594558811       11.7765032112
  C        11.2374348939        9.2278186206       11.3544384171
  H         5.0532546413       -2.2042225705       39.2191006565
  H         6.0464602271       -2.2829301995       37.7846380584
  H         5.6707235296       -0.7131626012       38.4619636769
  H         2.5261872167       -1.5152792124       16.6518694133
  H         2.1147398657       -2.9614919067       17.7859018967
  H         3.6503930931       -2.3926252241       17.7986987829
  H        17.3766195305        3.0584175530       24.6977964006
  H        18.2498300999        1.7826414018       24.0228145780
  H        16.6286356946        1.4089711804       24.3409662954
  C        11.8311636326        7.4293580038       10.1991661611
  N        11.7410351696        8.7612649320       10.1318708600
  O        11.0108084982       10.4070361340       11.5327662054
  S        12.2314316637        6.6932197989        8.7222643180
  C        11.8711688424        9.5413645345        8.8722794347
  H        12.0904893883       10.6080827119        9.1502758297
  H        12.6188051880        9.1512336450        8.2332818180
  C        10.5704947235        9.6176340609        8.0765646250
  H        10.2954652760       10.7054894175        7.9493258905
  H        10.7040838498        9.2326451621        7.1305216806
  H         9.7079295036        9.0805016457        8.5364390831
  H         1.9540132246        0.9752729298       12.5770103498
  C         2.9015247987        1.4157368397       12.5562954367
  H         3.6659577552        0.6932005512       12.4926217696
  C         2.9636123098        2.3486693153       11.3702887982
  C         3.1248216593        2.1873385611       13.8609946231
  C         4.3893623978        2.4084553470       10.8139793852
  H         2.6166001514        3.3675957238       11.7690372197
  H         2.1825728472        2.1638564995       10.6402685194
  H         2.6642488556        1.5940443905       14.5724555216
  H         2.5592139909        3.1136262424       13.8058575902
  H         4.1902234137        2.4097835102       13.9129099773
  C         4.8426274986        0.9829394933       10.2863650157
  H         4.4209124263        3.1323234321       10.0095055129
  H         5.0662758769        2.6852904915       11.6121991799
  C         5.6157364773        1.0744325398        8.9535188147
  H         3.9551183564        0.3854118271        9.9931888346
  H         5.3040050342        0.3793275259       11.1082816791
  C         6.8066166288        2.1163770877        8.9173679579
  H         4.7996555165        1.3742333616        8.2549195317
  H         5.9767280907        0.0999897921        8.6001997810
  C         8.1407501905        1.6498832355        9.5104715028
  H         7.0164480566        2.2288773251        7.8858256242
  H         6.5532832866        3.1353115726        9.2690258015
  C         9.2416137004        2.7511495805        9.6603424760
  H         8.4800235682        0.7774097901        9.0052042052
  H         7.9269839981        1.3154653209       10.5858712281
  C         8.7771152667        4.1000163087       10.2376304008
  C         9.5880397736        3.3967779596        8.3266009878
  C        10.5176335528        2.1039834150       10.3553367012
  C         8.8670671238        5.1385770839        9.3333762982
  C         8.2682568068        4.4734209255       11.4707556501
  C         9.3615184890        4.7288659305        8.1110487727
  C        10.2112245758        2.7590196488        7.1787291525
  H        10.1738449288        1.5390401597       11.2294382987
  H        10.9914935712        1.4535965882        9.6380629801
  C        11.7014018039        3.0059928339       10.7285019158
  S         8.3668530791        6.5984750939        9.9786534826
  C         8.0184170214        5.8506241309       11.5388553711
  H         8.2141813589        3.7363547137       12.2798014039
  C         9.7613664759        5.3415860226        6.9638695887
  H        10.3819274181        1.7301081189        7.3199222889
  C        10.4106357748        3.3682820095        5.9589309849
  H        11.5178022399        3.9840767531       11.2621653700
  H        12.1108115049        3.3756743498        9.9004703978
  C        12.7805195964        2.2509577886       11.5009679657
  C         7.5242429656        6.6387553675       12.7471878860
  C        10.2570702079        4.6478629457        5.8051635690
  H         9.5420520198        6.3946548130        6.9018643669
  C        10.8249126232        2.9661322435        4.6584661299
  H        13.5807392582        3.0422800425       11.7559221700
  H        13.2915246285        1.5286520338       10.8232512765
  C        12.4672757926        1.5569144627       12.8926616931
  C         7.5828968119        8.0108171852       12.8459369777
  C         7.2157519395        5.8784159976       13.9636606694
  C        10.6048149785        5.3354680816        4.5009641065
  C        10.8849851569        4.0396456468        3.7912939685
  S        11.1840224816        1.4530099283        3.8618386157
  H        12.0239324339        0.5309043556       12.8185861413
  H        13.4013364448        1.6120467785       13.4036045008
  C        11.5355233980        2.3347300072       13.8322838116
  N         7.8761551169        8.8540440647       11.8187138242
  C         7.2565434179        8.6851735183       14.0272579004
  C         6.8264253236        6.4975609914       15.1425054197
  H         7.1513507307        4.7629620855       14.0038396812
  C        11.8813835205        6.1576623945        4.7072083322
  C         9.4795569014        6.2025281206        3.8033700127
  C        11.4131699026        3.6215669326        2.5495351805
  C        11.6007351002        2.2451171336        2.4278432439
  H        10.5313279452        2.1275818062       13.4661934040
  H        11.6771126742        3.3748242390       13.6985816737
  C        11.5174155058        2.1092375598       15.4284905537
  S         7.8187780305       10.3945433944       12.3906394303
  N         7.4667207326       10.0861617162       13.9028549802
  C         6.8857436251        8.0153247499       15.2642720644
  H         6.7848887474        5.9390891865       16.0587421162
  H        11.6158832810        7.0777898929        5.2845449938
  H        12.2016251529        6.4832438167        3.7097922318
  C        13.0587165489        5.4918490098        5.4815157088
  H         9.0166645652        6.8210740250        4.5069907178
  H         9.9352268601        6.8401000841        3.1204731910
  C         8.5031940983        5.4199369393        3.0198435205
  H        11.7481214489        4.3526011639        1.8304411469
  C        12.1069639441        1.5049072050        1.1896266943
  H        10.5676758886        2.5322705127       15.8943083648
  H        11.4142227625        1.0260335231       15.5783023581
  C        12.7942848864        2.7296415255       16.0582099426
  C         6.7616142616        8.8052116378       16.4499556278
  H        12.7544747168        5.1303676534        6.5403441079
  H        13.4466364198        4.5849520000        5.0649989108
  C        14.2744108756        6.4820209344        5.5371366379
  H         8.0495725267        4.5927920133        3.6311659658
  H         8.9842854716        4.9019571005        2.1952355952
  C         7.5527523137        6.2629327249        2.2080706327
  C        12.1861678705        0.1495894670        0.9887408918
  C        12.3276063021        2.2654227510       -0.0333869927
  H        12.8434080370        3.7888650709       15.8444960633
  H        13.6409804002        2.2359856329       15.5300564445
  C        12.8246848524        2.6277358821       17.5597573550
  H         6.7120894930        9.8945927483       16.3857573597
  C         6.6176341208        8.4619559396       17.7823266451
  H        13.9210845881        7.4965159034        5.7480025497
  H        14.7466033111        6.5091062486        4.5405650673
  C        15.3309597156        6.0301711922        6.5628196951
  H         7.0619115101        7.0454708326        2.7001743727
  H         8.1973042340        6.7829677445        1.4762261819
  C         6.4716981425        5.5019108375        1.4157729847
  N        11.8403766295       -0.7760770376        1.9252202835
  C        12.4369301550       -0.4993859632       -0.2194172772
  C        12.6123589629        1.6595861502       -1.2321233520
  H        12.4500091432        3.3428325236        0.0897852612
  H        11.8445711792        2.7736021979       17.8488919717
  H        13.5170022084        3.4392983496       17.9293573101
  H        13.1313441136        1.6129521214       17.8056618156
  S         6.4746235176        6.8166438790       18.4100384277
  C         6.5932990242        9.5113099060       18.7442517778
  H        15.7941422342        6.9461384989        7.0140261378
  H        14.9394094035        5.4994412683        7.4471074470
  C        16.4692604883        5.2084011660        5.8717756326
  H         6.7635058400        4.4518598655        1.5535952478
  H         6.5349189346        5.7059835280        0.3762363099
  C         5.0299267770        5.6816422106        1.9176938969
  S        11.8818049566       -2.2706035678        1.3520010586
  N        12.4519172936       -1.9081089312       -0.1039398471
  C        12.6048041817        0.1974180466       -1.3727177664
  H        12.8510017138        2.2484013675       -2.0909604017
  C         6.1212364088        7.6073512739       19.9292025579
  N         6.3596017875        8.9297055928       19.9238706945
  O         6.8090108716       10.6850292624       18.5687403826
  H        16.0301740783        4.4144672286        5.3280881105
  H        17.0032211001        5.8858775945        5.1993502950
  C        17.4486831695        4.6222173094        6.8334120066
  H         4.4765618367        5.2191763427        1.1568114402
  H         4.8872372723        5.1898864842        2.9074643913
  C         4.5521819247        7.1429474083        2.0923372310
  C        12.8294201964       -0.6042500396       -2.5573433585
  S         5.7080573616        6.8062185909       21.4555497152
  C         6.4231416224        9.7051805848       21.1972026876
  H        16.9338883028        4.4774323081        7.8023157158
  H        17.6695852433        3.6073624001        6.4075837692
  C        18.6755320451        5.4885271789        7.0529035637
  H         4.8465511332        7.5841906274        3.0878314643
  H         3.4595357568        7.0618298712        2.2455046607
  C         4.9401924562        8.0708342615        0.9242299735
  H        12.4164896887       -1.6043394553       -2.5802123122
  C        13.0780862901       -0.2712796986       -3.8762776607
  H         5.5162174268        9.5733140095       21.8587032813
  H         6.3460669650       10.7740600343       21.0110821933
  C         7.8291644604        9.4794731920       21.7718359675
  H        19.2445137029        5.3806193538        7.9712798190
  H        18.3745562291        6.5139855584        7.1665836026
  C        19.6007826079        5.4362736918        5.8368157316
  H         6.0267287237        7.9919746437        0.8395187604
  H         4.4428485289        7.8773996549       -0.0525465264
  C         4.4759104021        9.5540173102        1.1168078785
  S        13.5977562935        1.2932553853       -4.4312780195
  C        13.0985060789       -1.3193705473       -4.8917730949
  H         7.8419595144        8.7166716025       22.5242022687
  H         8.2046515128       10.4276471967       22.2403753752
  H         8.5343120328        9.2899455219       21.0060331730
  H        20.5065450317        5.0058575793        6.1135976858
  H        19.3111171929        4.8264274429        4.9793468009
  H        19.7134388435        6.5298465919        5.4624211013
  H         4.8720062492        9.9523436628        2.0242320452
  H         4.9854282471       10.1530281093        0.3038977362
  H         3.4453510071        9.8879787368        1.0317062280
  C        13.8830224892        0.5139988673       -6.0028326551
  N        13.6575433408       -0.8387441303       -6.0387933584
  O        12.8597193501       -2.4904232768       -4.6692448603
  S        14.6904740574        1.1412325612       -7.4948941324
  C        13.8629272990       -1.6491134671       -7.2150022691
  H        13.8951215752       -2.7431726543       -6.9185792374
  H        14.9529078019       -1.4180585456       -7.3383597881
  C        12.8696160035       -1.2015928542       -8.2698309666
  H        12.0466607201       -0.7153208889       -7.7391226482
  H        12.4886628399       -2.0718539073       -8.7725512214
  H        13.3117324398       -0.5849241039       -9.0761781299
