352
 i =    22300, time =    11150.000, E =        96.2498749709
  H         9.1431099716        5.4382462571       31.7066722050
  C         9.8135238208        6.2099105568       32.0807289520
  H         9.1200997892        6.9757982925       32.3403592998
  C        10.6329544932        6.7634854415       30.9452414066
  C        10.6765840056        5.7009834245       33.1914049260
  C        11.3273799760        5.6852027555       30.0682407026
  H         9.9974456597        7.2994032699       30.2559650999
  H        11.4759952210        7.3575890328       31.3819807761
  H        11.1252362786        4.7632681790       33.1122137223
  H        11.4565317182        6.4306577243       33.4402058008
  H        10.0741109909        5.5367078347       34.0732683531
  C        10.4778250049        5.1004099172       29.0180501873
  H        11.6003256688        4.8544989696       30.7471197550
  H        12.3001447712        6.0246419980       29.6364955351
  C        10.8990691431        5.4072518105       27.5470071505
  H        10.4811534682        3.9683155184       29.1200315208
  H         9.3289203444        5.2812919590       29.2664302263
  C         9.9313819131        4.7717604072       26.6352032590
  H        11.9005799670        5.0726182409       27.2491911676
  H        10.9555051320        6.4916887162       27.3906257601
  C         8.6758494309        5.6372304440       26.4740170741
  H        10.4405590011        4.4022766542       25.7448681600
  H         9.6476687790        3.8585192198       27.0760490554
  C         7.5067420242        5.0002425453       25.7742329132
  H         8.4600133760        6.1635649885       27.3694128938
  H         9.0602074306        6.4337097033       25.8294987962
  C         7.1510596748        3.6412839115       26.4295727623
  C         7.9818311371        4.3111733472       24.4721404243
  C         6.2808920428        5.9622263637       25.5024038645
  C         7.3551195379        2.5764259020       25.5771077415
  C         6.6237289224        3.1943545501       27.6752114623
  C         7.8810797325        2.9634472815       24.3885095830
  C         8.5540000513        4.9404314093       23.3356576416
  H         6.5555040329        6.7273022849       24.8335558041
  H         6.0167405798        6.3382313575       26.4976674654
  C         5.0969162994        5.1753188375       24.8884375940
  S         6.7826628909        1.0965318839       26.2135398303
  C         6.4284239767        1.8389265660       27.7256449532
  H         6.3491829140        3.9930692456       28.3372414505
  C         8.1915427840        2.4126337922       23.1654746026
  H         8.5727071388        6.0472130529       23.3772042644
  C         8.8306034979        4.3481059530       22.1693642720
  H         5.5874526327        4.8561255045       23.9723696059
  H         4.8708097494        4.3298530627       25.5755327636
  C         3.8635510754        5.9962877279       24.3445435780
  C         5.9027186663        1.1193539451       28.9630195733
  C         8.6102010707        3.0097658971       22.0136462177
  H         8.0510349582        1.3367685077       23.1420286050
  C         9.2345638153        4.7438514819       20.9191277670
  H         3.1274475836        5.3610726107       23.9534343020
  H         4.1195699657        6.6822148266       23.6325044775
  C         3.1258580021        6.6636184074       25.5544594681
  C         5.8683903321       -0.2334997678       29.2049651941
  C         5.4675597056        1.9584838896       30.0856839792
  C         8.9412238465        2.2942528796       20.7360389850
  C         9.3022457346        3.6447043159       20.0788737664
  S         9.4909412587        6.1673863808       20.0695823572
  H         2.3660395943        7.3807160179       25.1683127970
  H         3.8890469862        7.1798506220       26.1271538102
  C         2.3040182379        5.7478616705       26.4570619739
  N         6.2089606819       -1.1828071448       28.2680855513
  C         5.5431171840       -0.7849186346       30.4063934053
  C         5.1136097733        1.4562480820       31.3432380677
  H         5.3530754407        3.0544302178       29.8798209667
  C         7.7347808493        1.6146235287       19.9436173370
  C        10.2523694442        1.5055616603       20.7794056277
  C         9.5207336194        4.0002116933       18.7419907389
  C         9.6206239859        5.3339295595       18.5675673601
  H         1.5063259418        5.2243883708       26.0392973542
  H         3.0070015205        5.0240332963       26.8039374221
  C         1.7489434138        6.3976639579       27.7520878378
  S         6.0836768510       -2.6422929006       28.9899295656
  N         5.5939408056       -2.1828701651       30.4788586268
  C         5.0747476964        0.0157180305       31.5627890629
  H         4.7810833085        2.1494537923       32.0958446021
  H         7.5320613458        0.6204846424       20.3624437150
  H         8.1251908456        1.3036471350       18.9156289303
  C         6.4718471866        2.3435925239       19.7318549831
  H        10.4678111311        1.1068877806       19.8065384537
  H         9.9777472721        0.7636127612       21.5256799147
  C        11.5214541293        2.2837849670       21.1738312611
  H         9.4990839046        3.3290998469       17.8912798671
  C        10.0068889387        6.0098985173       17.2995089957
  H         0.7181718411        6.6384407874       27.5506811592
  H         2.3475164519        7.3262068078       27.9782889340
  C         1.8349796865        5.4609958408       28.9061114352
  C         4.7477414071       -0.6884778149       32.7682029664
  H         6.6569105552        3.0963427119       19.0136771340
  H         6.1571462259        2.6911033812       20.7227321169
  C         5.2764160031        1.6091414640       19.1601759647
  H        11.3429271881        2.9177884412       21.9769508364
  H        11.8529814397        2.9354505087       20.4114178738
  C        12.5838139024        1.3330053311       21.7161915288
  C        10.0955015261        7.3958119509       17.1591049911
  C        10.2451666217        5.1933416343       16.0705678400
  H         1.8767932310        4.4285083124       28.5868527329
  H         2.8231837320        5.5426284218       29.3529734259
  C         0.7366130328        5.8541850180       29.9800947146
  H         4.6019442384       -1.7071926227       32.5714377158
  C         4.4858866568       -0.2339789632       34.0550770179
  H         4.6893058487        1.1361918007       19.9262166268
  H         5.7028025547        0.8071616748       18.5287215664
  C         4.2624291979        2.6325525823       18.4555507470
  H        12.1414191796        0.9080224726       22.6216253099
  H        12.6770289728        0.5068561412       21.0277388145
  C        13.9306374768        1.9645441025       21.8514755662
  N         9.8284091192        8.2973193892       18.1595770316
  C        10.5620195934        7.9460035249       16.0217538762
  C        10.6561928745        5.7583547139       14.8715015201
  H         9.9325280339        4.1346817428       16.0896213204
  H        -0.2020159422        5.4922603699       29.5159864378
  H         0.7923432331        5.2135570115       30.8909503206
  H         0.7964172441        6.9057672965       30.2330143453
  S         4.3268722195        1.4355342863       34.5533975373
  C         4.4088159892       -1.2024738802       35.1598255276
  H         4.2848515868        3.5796556235       19.0964776856
  H         4.6184136984        2.9514684867       17.4090297234
  C         2.8737351782        2.0374986207       18.3738805617
  H        13.9940484045        2.8329438558       21.1675992522
  H        14.6131558147        1.2503302092       21.5054991452
  C        14.1310961040        2.3814221690       23.2946649325
  S        10.1147424674        9.8047916137       17.6221463758
  N        10.6635089238        9.3467399597       16.1683940701
  C        10.8820239891        7.2553592798       14.8261658646
  H        10.6105935760        5.0274398196       14.0231114150
  C         4.1211346918        0.7688241920       36.1474841857
  N         4.1648163772       -0.5730013500       36.3082150049
  O         4.4722116406       -2.4214323297       34.9713332256
  H         2.3763969959        2.7031633056       17.7084920413
  H         2.3963420117        2.0699110802       19.3825552980
  C         2.8051118176        0.6694137412       17.6769613566
  H        13.2911609388        2.9995447801       23.6622043195
  H        14.2521657865        1.5127018760       23.8769255976
  C        15.3170415168        3.2792252802       23.3301242564
  C        11.1543094808        8.0669085416       13.6129241491
  S         3.8976059638        1.7933034178       37.6210397934
  C         4.1544344501       -1.2208834161       37.6220290910
  H         2.2322792190        0.7725101099       16.7718644092
  H         3.8402940132        0.3387504364       17.4310316994
  C         2.0208086860       -0.4578027640       18.4800734529
  H        15.2919772914        3.9846586486       24.1455387628
  H        15.1688246298        3.9960233734       22.4660532850
  C        16.6835300641        2.5773421155       23.4418442632
  H        10.9569133073        9.1399365217       13.6801953721
  C        11.7189053084        7.7464547782       12.4200279323
  H         3.3795941091       -0.8726823184       38.2532065866
  H         3.9355351445       -2.3536141335       37.6563642936
  C         5.5838640145       -1.2062677909       38.1010228152
  H         0.9936622975       -0.1638160459       18.7945324415
  H         2.4738814306       -0.7049514429       19.4352618909
  C         1.8345121374       -1.8447973979       17.7529855454
  H        17.4000390663        3.2526964846       23.7898126930
  H        16.6409115617        1.6808268465       24.0326635883
  C        17.3149119312        2.1661744955       22.1557256477
  S        12.3393709507        6.2148431189       12.0534981078
  C        11.7378853814        8.7600256070       11.3643711313
  H         5.7837687616       -0.4919978124       38.9278673870
  H         5.8605113841       -2.1950906984       38.4258659083
  H         6.2756702045       -1.0672913204       37.2696930725
  H         1.2247588921       -2.5388446085       18.4039065933
  H         2.8291629151       -2.1398185337       17.4551547772
  H         1.2394486806       -1.8106059276       16.8141897957
  H        18.3318976738        2.5183002749       22.1428538757
  H        16.7873720392        2.5695834359       21.3321406896
  H        17.4016971145        1.0514574974       22.0887892769
  C        12.5774498200        6.9316617831       10.4796824799
  N        12.3527711614        8.2492393727       10.3289396999
  O        11.3215086268        9.9288317991       11.5295156470
  S        13.4709908634        6.2311145835        9.1410935834
  C        12.6250987750        9.0645784086        9.1804034103
  H        13.0262242235       10.0580890502        9.4566215321
  H        13.4669037646        8.6901310579        8.5531677264
  C        11.4454302567        9.1336604890        8.1985184028
  H        11.0504749267        8.1695735692        7.9232147260
  H        10.5640733586        9.4842397370        8.6799777556
  H        11.6766314427        9.6785193341        7.3110232214
  H         4.1160296098        1.1460463263       12.4829584600
  C         3.9838670555        2.1300632554       12.8043354464
  H         5.0069904531        2.4957856156       12.8869789143
  C         3.2959006508        2.8726184209       11.7157177891
  C         3.3045995597        2.2319387767       14.2208503309
  C         4.2188025414        2.9784881746       10.4544258160
  H         3.0287377972        3.8494436498       12.0733189539
  H         2.3625411941        2.3201279324       11.6505860807
  H         2.2174578057        1.9274286557       14.2082999570
  H         3.2856409269        3.2089878660       14.6039433685
  H         3.7938883614        1.5489849497       14.8896553280
  C         4.8409721827        1.6947887851        9.9669193411
  H         3.6922575818        3.5056150082        9.6750587020
  H         5.0627202519        3.5678983944       10.6286944569
  C         5.5356995179        1.9566587848        8.5994110367
  H         3.9727713121        1.0418605533        9.8699650110
  H         5.5896380977        1.1650613933       10.5599004292
  C         6.8469593094        2.6768997636        8.7378435058
  H         4.7943754645        2.5619931746        8.0186048492
  H         5.5512801238        0.9988558532        8.0679254711
  C         8.0096905258        1.9431510666        9.4709413014
  H         7.0703374038        3.0675283229        7.7481425957
  H         6.5440560596        3.5749903334        9.2072225723
  C         9.2863667548        2.8166402605        9.5327263896
  H         8.2768669803        1.0223998155        9.0058695582
  H         7.6838734569        1.5311117634       10.4521677035
  C         9.0392584654        4.1814859890       10.1963797955
  C         9.7166962362        3.5309465165        8.2514543687
  C        10.4765977047        2.0177465834       10.0107294426
  C         9.2880053239        5.2523719937        9.4111651924
  C         8.4365955143        4.5538369080       11.4227149819
  C         9.7286668241        4.8705966616        8.2041599412
  C        10.1736899659        2.9570760305        7.0590517091
  H        10.0443672586        1.5476615067       10.8585804024
  H        10.6662440454        1.1877552894        9.3390547919
  C        11.7814387942        2.7981793498       10.2438704252
  S         9.0270267813        6.7671356875       10.1691847143
  C         8.4152297685        5.9297920731       11.5376348111
  H         8.1842883290        3.7747424339       12.1504181942
  C        10.0534730370        5.5360619971        7.0757537030
  H        10.0786742329        1.9192562426        7.1052881427
  C        10.4613142571        3.6110014048        5.8893819316
  H        11.5815815932        3.8117737043       10.5657167067
  H        12.3027119805        2.8380179025        9.3192011672
  C        12.7828991887        2.1357542549       11.1858312470
  C         7.8407375224        6.6832773163       12.7623630348
  C        10.3917697290        4.9572868425        5.8041799206
  H        10.0405056917        6.5957519265        6.9381278955
  C        10.7694194533        3.1657280067        4.6264202910
  H        13.7234771560        2.6467496428       11.2034143102
  H        12.9536436812        1.1283943734       10.8628731757
  C        12.1479778754        1.9980996272       12.5606652032
  C         7.9119205113        8.1252283021       13.0567399020
  C         7.2196904944        5.8781615904       13.8266411995
  C        10.7353995241        5.6175084026        4.4833014807
  C        10.8562336373        4.2335550345        3.7254612238
  S        11.0042848185        1.6500995943        3.8762050980
  H        11.6158444525        2.8648002440       12.8294332929
  H        11.3702197174        1.2112229618       12.6153795057
  C        13.1460129721        1.8587001257       13.6651980149
  N         8.4172674346        9.0951328858       12.2422850701
  C         7.5636780029        8.5814151407       14.2470376884
  C         6.8793884187        6.4013626780       15.0583416620
  H         7.0067064608        4.8156275124       13.6560824240
  C        12.0712872740        6.3851118924        4.6020145642
  C         9.6112514387        6.5096915614        3.8349249927
  C        11.2908235986        3.8201533989        2.4263871829
  C        11.3468708371        2.4293317341        2.3850044533
  H        13.7499347446        2.7490848383       13.6934962379
  H        13.9712034516        1.1561271069       13.3965743995
  C        12.5481469591        1.4293482896       14.9881786968
  S         8.3216233384       10.5330455483       13.0069200653
  N         7.8176878274        9.9567979930       14.4676046089
  C         7.1613576251        7.7952230026       15.3842297407
  H         6.4550092869        5.7630474448       15.7889151195
  H        12.0228473980        7.1936234627        5.3445319464
  H        12.3294187674        6.8675444053        3.6638749861
  C        13.3047974960        5.6149227738        5.0160959320
  H         9.4970127933        7.4126498717        4.4479855011
  H         9.8744789282        6.7913636621        2.8195478536
  C         8.2434158514        5.8890413561        3.7786429155
  H        11.6133822198        4.5356133341        1.7093118548
  C        11.5740028713        1.6975877292        1.1482397992
  H        11.4545270275        1.5227500981       14.9976839607
  H        12.8724948143        0.4440061084       15.3330219366
  C        13.1295109552        2.3530729732       16.0904107929
  C         6.7734821351        8.4019756654       16.6388096087
  H        13.2579918081        5.2192317593        6.0291551791
  H        13.4299978584        4.7465603366        4.4354550612
  C        14.5402402915        6.5052000766        5.0805560069
  H         7.9261251243        5.4251257927        4.6366417644
  H         8.3063276679        5.0254187750        3.1140806583
  C         7.2359612792        6.8363195472        3.2075062595
  C        11.6593150966        0.2787536743        1.0536623978
  C        11.6848067474        2.3937486512       -0.1469473783
  H        12.8714712763        3.4178648969       15.9454807119
  H        14.2358791013        2.4471773203       16.0928166330
  C        12.6853032542        2.0530500293       17.4851661974
  H         6.6541254981        9.4305289452       16.6595148248
  C         6.5132034942        7.8533501330       17.8847787907
  H        14.3581810569        7.3236342359        5.7618315639
  H        14.7375686984        6.7818477895        4.0443734577
  C        15.7891663660        5.6951948578        5.4820045144
  H         7.2087527166        7.6400253727        3.9689415992
  H         7.4794942692        7.3607061371        2.3030991945
  C         5.9012464485        6.2093821358        3.0615969205
  N        11.5133538066       -0.5779401637        2.1087847423
  C        12.0311621953       -0.3818361603       -0.1257468505
  C        11.9657404363        1.7236240138       -1.3686174750
  H        11.4179820242        3.4487853867       -0.1474775734
  H        11.5606170865        1.9502875106       17.4587570232
  H        12.7598846655        2.8597884134       18.2249398017
  H        12.9997068091        1.0500839217       17.9085608764
  S         6.4265784194        6.1729534945       18.2470036473
  C         6.3555650489        8.7888020118       19.0319347902
  H        15.7818374985        4.7555117409        5.0250289818
  H        16.6377292874        6.2100551473        5.0766223973
  C        16.0646835932        5.4960041196        7.0285634682
  H         5.2600440767        6.3568954618        3.8970059563
  H         5.9390481207        5.1350373975        2.8723276894
  C         5.0268559762        6.9247297482        1.9317205675
  S        11.5821310288       -2.1067080543        1.5895430841
  N        11.9228654089       -1.7798257368       -0.0025966004
  C        12.2529099502        0.2460276412       -1.3222817978
  H        11.8867006411        2.2491516062       -2.2952053053
  C         6.1351944242        6.7202739261       19.9243159315
  N         6.0864327503        8.0559017381       20.1233232223
  O         6.6319356953        9.9683857659       18.9907194220
  H        15.9706800323        6.4405589445        7.4852876203
  H        15.4377707851        4.7701102581        7.3776808552
  C        17.4217271992        5.0166137428        7.2907675844
  H         5.3300195439        6.5189344483        0.9534574049
  H         3.9497379075        6.6806696027        2.0787131159
  C         5.0668730561        8.5094760269        1.8947181301
  C        12.5030870623       -0.5069725918       -2.5150339635
  S         6.0772086410        5.6722431949       21.3513392710
  C         6.0919327732        8.6921590160       21.4239495962
  H        17.4212331934        4.5813766882        8.3087790653
  H        17.4951385650        4.1614972650        6.5335442825
  C        18.5631891398        5.9869046908        7.1713013975
  H         6.0961574813        8.8802856984        1.7050514360
  H         4.9080302611        8.9112739337        2.9547594679
  C         4.0112521523        9.0900158598        0.9629104630
  H        12.2837459870       -1.6206625768       -2.4547128133
  C        13.0006993168       -0.1524495590       -3.7080845457
  H         5.3353892785        8.2644819249       21.9956992420
  H         5.7152384601        9.7085771174       21.4372120127
  C         7.4234381935        8.5815565999       22.1185698150
  H        19.0620694482        6.2246684324        8.1632023969
  H        18.1025744638        6.8466782129        6.7065299166
  C        19.6525415195        5.6758287491        6.1701782564
  H         4.3675825734        9.1456899003       -0.0442919320
  H         3.1169106392        8.4647407515        0.9148999610
  C         3.6666803194       10.4526263847        1.3763210848
  S        13.3673051906        1.4159710904       -4.2228216090
  C        13.1812750936       -1.1956539250       -4.7365237815
  H         8.1652771295        8.0892728197       21.4737038185
  H         7.2534677729        7.9137460204       23.0302997267
  H         7.7864166155        9.5270856307       22.4388078587
  H        20.2289693284        6.5426570465        5.9208030199
  H        20.2878799620        4.9772459123        6.4873841669
  H        19.2167171385        5.2679850282        5.2842991294
  H         4.3364395850       11.1491184099        0.8239309229
  H         2.5867839211       10.6697193825        1.2518323981
  H         3.8166153858       10.6266261639        2.4118732047
  C        13.7904628678        0.7459121670       -5.7783430464
  N        13.8518162079       -0.6144979687       -5.7385388478
  O        12.8960818261       -2.3967005375       -4.6316247442
  S        14.4676005458        1.5263026979       -7.2135045767
  C        14.2152946118       -1.4904634730       -6.8943248923
  H        14.4950158939       -2.5073059343       -6.5760093488
  H        15.1292684184       -1.1998954775       -7.3817030788
  C        13.0295244858       -1.5903711492       -7.8945538610
  H        13.4827607532       -1.6718471939       -8.9108647388
  H        12.5583613348       -0.5713865712       -7.8575735935
  H        12.4221824869       -2.4644522511       -7.8451874435
