352
 i =    64000, time =    32000.000, E =        98.8093518405
  H        11.7746219501        5.1468210110       32.5610405324
  C        10.8600785552        5.6670205877       32.6886345792
  H        10.0152656332        4.9584425668       32.8248720746
  C        10.4123269703        6.5992313071       31.5485102500
  C        11.1050912091        6.4280136199       33.9762007843
  C        10.2758819196        5.8177404382       30.2430322032
  H         9.5068026912        6.9938569146       31.8735227437
  H        11.0693544682        7.4012506681       31.4806835899
  H        12.1722638794        6.6839627011       34.0064237953
  H        10.6835517211        7.4603298515       33.9969465281
  H        11.0049013207        5.8252381080       34.8879921239
  C        10.3308263872        6.6721899638       29.0269160696
  H         9.3851910822        5.2885259428       30.1985169335
  H        11.1614881049        5.1245245849       30.2142083405
  C        10.7522556490        6.0342527400       27.7179198399
  H         9.4934820894        7.3661314006       28.9212786967
  H        11.2479905227        7.2820954194       29.2177433221
  C         9.6588294556        5.1504826641       27.0767605136
  H        11.5944986205        5.3592009892       28.0440482488
  H        11.0416219799        6.7554033207       27.0060900435
  C         8.5977337554        5.9999022272       26.3892015600
  H        10.0361470933        4.5383084719       26.2507768112
  H         9.1496098367        4.5676118810       27.8118019399
  C         7.4223363625        5.1241490289       25.6759763544
  H         7.9745116553        6.6555657133       27.0760877235
  H         9.0970303162        6.4834501570       25.5316040147
  C         7.0658881705        3.7762049192       26.2986604683
  C         7.8959282384        4.4211002404       24.4100967656
  C         6.2228911553        6.0962968837       25.4926126462
  C         7.3301896269        2.6980550233       25.4976454337
  C         6.5852455256        3.5240521604       27.5827963613
  C         7.8970575618        3.0527035672       24.2969913591
  C         8.2021018386        5.1736429899       23.2294840460
  H         6.5359575100        6.9756248290       24.9282548318
  H         5.9285027513        6.4599149107       26.4967962833
  C         5.0323927212        5.4856864843       24.9235858024
  S         6.8853026972        1.1879989950       26.2524794237
  C         6.3893270825        2.1513736706       27.6535094011
  H         6.4377678047        4.3517797538       28.2961056338
  C         8.2512138784        2.5234538643       23.1222711739
  H         8.1706356450        6.1637541499       23.2927528623
  C         8.5570056877        4.5980402792       22.0352211951
  H         5.2478927157        5.2477541557       23.8489362430
  H         4.7377429139        4.4763062834       25.3269303667
  C         3.8216905363        6.4649784822       24.8605311290
  C         5.9461436368        1.4315928080       28.8960540078
  C         8.5499773032        3.2278849363       21.9285093101
  H         8.3151652213        1.4336377521       23.0533390676
  C         8.9279751516        5.1017388389       20.8142232075
  H         3.1658510369        6.0426760606       24.0660511011
  H         4.0625804369        7.4630749180       24.6065157660
  C         2.9992413597        6.7076462974       26.1638489872
  C         5.7662910792        0.0443273199       29.1336189795
  C         5.5591761383        2.2356899240       30.0663117533
  C         8.9833180357        2.6929517672       20.5815733775
  C         9.2020008238        4.1163216119       19.9393882827
  S         9.1461652705        6.6505402717       20.0009794806
  H         2.4233670546        7.6288680190       26.0282539593
  H         3.5341942419        6.8733989570       27.0924157846
  C         2.0353607367        5.5536482070       26.3803799175
  N         5.9210761200       -0.9699782851       28.2000066728
  C         5.5004798590       -0.5398521183       30.3662799178
  C         5.0593548638        1.7046358331       31.2498283277
  H         5.4225541227        3.3129330377       29.9166847822
  C         7.9568876056        1.8153482502       19.8281040934
  C        10.3486982202        1.9755600167       20.6264525137
  C         9.5925329531        4.5700595542       18.7027296190
  C         9.5502212296        5.9041643115       18.5273626445
  H         1.3531553769        5.4967688610       25.6122153152
  H         2.4833051206        4.6151766008       26.3522503105
  C         1.1664820091        5.6659259346       27.6578455252
  S         5.8157783811       -2.4451227945       28.9014543393
  N         5.6440585113       -1.9090090485       30.4173415256
  C         5.0905566787        0.2243257219       31.5223074842
  H         4.6733390317        2.3426572003       31.9750410123
  H         7.7846917828        0.8915113937       20.4257237802
  H         8.3396133009        1.4088914601       18.9136002745
  C         6.6594231758        2.5712160663       19.5125146146
  H        10.6071464705        1.8356177777       19.6084681022
  H        10.3065866128        1.0254369866       21.1461683969
  C        11.5892026886        2.7033299642       21.0778501875
  H         9.7185959775        3.9131283519       17.8610667059
  C         9.8344615750        6.7266993577       17.2666975812
  H         0.3608591096        4.9112423325       27.6993387552
  H         0.5350918827        6.5959683090       27.5522993886
  C         2.0048311934        5.8631310071       28.9145826538
  C         4.7725223278       -0.3713437198       32.8235414772
  H         6.8608300622        3.2531992039       18.6619579310
  H         6.3466383842        3.1103632207       20.3910449272
  C         5.4914811091        1.6758768544       19.1519112558
  H        11.3979038622        3.1319652645       22.0318303276
  H        11.8553906450        3.5153886247       20.4060120067
  C        12.7413539792        1.6888249522       21.2177463021
  C         9.9270425281        8.1447167144       17.1891054435
  C         9.9386370946        6.0005038809       15.9833724559
  H         2.7948606271        5.0931977980       28.8529169155
  H         2.4078413136        6.8923265477       28.8852497351
  C         1.2173535178        5.8156499449       30.2382834658
  H         4.9312608426       -1.4465777253       32.8646245848
  C         4.4565150246        0.1456052312       34.0407454587
  H         5.0277929728        1.1293936387       20.0285770619
  H         5.7502969694        0.8295291644       18.5321367038
  C         4.4046793248        2.4600476292       18.3029985709
  H        12.4830201787        1.0594273843       22.0833184604
  H        12.8273029968        1.1469694748       20.3005980458
  C        14.1388493533        2.2837856970       21.4180810811
  N         9.7362948250        9.0471335161       18.2050265063
  C        10.0909057607        8.8298560018       15.9417753937
  C        10.2710937026        6.6950750121       14.8279703762
  H        10.0137377942        4.9385460084       15.8978378188
  H         0.7037354276        4.8639938542       30.3860509535
  H         1.9095367107        5.8509984878       31.0174626881
  H         0.5868965721        6.6533860170       30.3930616239
  S         4.3281912841        1.7649928594       34.3976073050
  C         4.3373459803       -0.7695565454       35.2381141558
  H         4.2179695352        3.4381635093       18.7081309420
  H         4.6875585270        2.5764530927       17.3208674877
  C         3.1365273734        1.6347933897       18.2744571561
  H        14.2200944790        3.1435005684       20.7548644437
  H        14.9720448347        1.5748514109       21.2227180404
  C        14.3194708051        2.6990543369       22.8708639157
  S         9.8222254274       10.5955589323       17.6724858062
  N        10.1245419611       10.2366411288       16.1238327179
  C        10.3958864911        8.1593530018       14.7487958307
  H        10.4304204398        6.0929185907       13.9478459368
  C         4.0321557956        1.2876591345       36.0863832010
  N         3.9943299269       -0.0603025484       36.2848347259
  O         4.5583338119       -2.0038777954       35.2392404695
  H         2.3395786169        2.2892224922       17.9073164414
  H         2.7414231600        1.3292230094       19.3246890000
  C         3.2483358083        0.3652926390       17.4398059688
  H        13.3763213591        3.0076830252       23.3357819119
  H        14.6434563184        1.8651501173       23.4138719959
  C        15.2665844000        3.9067634115       23.0131825732
  C        10.6928896070        8.9639459166       13.5570086102
  S         3.7159262852        2.2653774687       37.5038361238
  C         3.9145901602       -0.7018939522       37.6091933055
  H         2.6548913273        0.5166287450       16.6062452676
  H         4.2081485037        0.2205836139       16.9530458890
  C         2.7121755277       -0.9236952412       18.1882943857
  H        15.4083112152        4.0907809990       24.0097067674
  H        14.6989705059        4.8188589132       22.6143821977
  C        16.6025396129        3.6643389779       22.3116718826
  H        10.4934549838       10.0216473821       13.6200159753
  C        11.2259632182        8.6521955683       12.3092289806
  H         3.1495058902       -0.2365183724       38.2280173356
  H         3.6358873687       -1.7274996716       37.4279714842
  C         5.2109804484       -0.6465794451       38.4507736019
  H         3.2433733092       -0.8876274758       19.1108208763
  H         2.9450668583       -1.8997992761       17.6153555654
  C         1.2394007473       -0.8716599089       18.5755997388
  H        16.5307774322        3.5999592489       21.1957390418
  H        17.2324112216        4.5500756535       22.5753560768
  C        17.4371424692        2.4541975746       22.9037540229
  S        11.7337018218        7.0352951035       11.6960951194
  C        11.4044668614        9.7015876621       11.2396677728
  H         5.8498008026       -1.4641067704       38.3131122718
  H         5.8174314751        0.2159673016       38.2682996133
  H         4.9695048930       -0.6653348468       39.5458725609
  H         0.8623115303       -1.9292269216       18.5755286231
  H         0.7103855219       -0.3300983514       17.7605581808
  H         1.0178510051       -0.3219611184       19.4782379821
  H        17.3341503286        2.3725799479       23.9606939779
  H        18.5287111369        2.4898324532       22.7003665629
  H        17.1879277029        1.4822685906       22.3713721113
  C        11.8849339908        7.7742626966       10.1001443344
  N        11.7939434057        9.1807314209       10.1007173325
  O        11.1405707625       10.8653042134       11.4337799332
  S        12.4847173604        6.8607094717        8.6786785108
  C        11.8749244983        9.9950096469        8.8395357714
  H        12.3316709697       10.9893027376        9.0123605417
  H        12.5208129682        9.4236243338        8.2316479164
  C        10.5060840781       10.1302513677        8.0819538316
  H        10.4765114982       10.8761012146        7.2868277994
  H        10.2242965616        9.1514668072        7.6492316141
  H         9.7638496741       10.4590208732        8.7930361350
  H         3.9113128567        1.5533052086       12.5984188395
  C         3.8259586900        2.5752392912       12.6852726024
  H         4.8405263001        2.9641433775       12.8718344854
  C         3.0958008575        3.3564751984       11.5851089523
  C         3.1642753973        2.8000839615       14.0036602419
  C         3.8383895777        3.4179948520       10.3273884507
  H         2.9753885027        4.4082150706       11.8403264876
  H         2.0258166588        3.0578278602       11.3243388757
  H         3.9587746577        3.1142367092       14.7772970051
  H         2.4797453750        2.0515243041       14.3686414806
  H         2.4148157652        3.6275761904       13.9647375391
  C         4.4693350240        2.0613150129        9.8488612786
  H         3.1230729286        3.7854946660        9.5513768801
  H         4.5629649776        4.1997776847       10.5415461830
  C         5.0805094539        2.2444785857        8.4620100310
  H         3.5823643208        1.4320095547        9.7969560882
  H         5.2263760616        1.6442824456       10.5309906063
  C         6.4198839264        2.9681059018        8.4496581844
  H         4.4301074604        2.8368162182        7.8278416427
  H         5.1141519238        1.4026891066        7.8183461017
  C         7.6559636416        2.2555912314        8.9667492467
  H         6.6227775530        3.3593785159        7.4162871063
  H         6.2056135628        3.8434217231        9.1090372076
  C         8.9359698538        3.0913877051        9.1660406317
  H         7.9386957883        1.4350895600        8.3202062933
  H         7.4783313718        1.8244272573        9.9570119519
  C         8.5785178166        4.3876805928        9.7935990462
  C         9.2861131498        3.6749186782        7.8537680518
  C        10.2124539710        2.3378485229        9.7605416175
  C         8.7434983785        5.4159244196        8.8989890937
  C         8.0922301515        4.8100325548       11.0488598388
  C         9.3242350671        5.0309331886        7.7420700592
  C         9.7062549875        3.0016832097        6.6724209788
  H         9.8631791499        1.8633425650       10.6992421194
  H        10.4720882973        1.5753406872        9.0146561558
  C        11.3826638549        3.1955561595       10.0463903131
  S         8.2753248328        6.9780737834        9.5517916028
  C         7.9153139173        6.1667918572       11.0798487581
  H         7.7884747579        4.0141070682       11.7114367504
  C         9.6690294987        5.5916717796        6.5402042559
  H         9.7959652272        1.9631917379        6.6890717226
  C         9.9911147721        3.5982460367        5.4552505932
  H        11.1075630614        4.1871041336       10.4291733107
  H        12.0098119869        3.2524309054        9.1721159362
  C        12.2448599326        2.6303317585       11.2097843183
  C         7.5066469545        6.8546857316       12.3647625806
  C        10.0173229118        4.9459413621        5.3363052513
  H         9.8148634133        6.6294528711        6.5033685688
  C        10.3541289053        3.1859331932        4.1814027326
  H        13.2373792272        3.1044880844       11.1576540829
  H        12.4648688365        1.5907574793       11.0275679748
  C        11.5742786855        2.9314504144       12.5610585754
  C         7.5079115629        8.2202481988       12.6942450563
  C         7.0251345678        6.0222353768       13.4525395027
  C        10.3347863119        5.5984040986        4.0489172186
  C        10.5332830217        4.2914983832        3.3575252152
  S        10.6850260210        1.6930194704        3.5445494022
  H        11.5785146426        4.0997624613       12.5885183813
  H        10.5333233565        2.6473445053       12.6236710645
  C        12.4139041755        2.3887725693       13.7093332790
  N         7.7405433692        9.2009076861       11.7642762353
  C         7.3273597627        8.7515714941       13.9689029609
  C         6.7962803957        6.5177916252       14.7457567709
  H         6.9686145991        4.9857971055       13.3131429811
  C        11.6427223034        6.4686051334        4.0055227521
  C         9.2414697037        6.4189306324        3.3909364525
  C        10.8325753293        3.8082803206        2.0813927738
  C        10.9228466726        2.4400484516        2.0472032504
  H        13.3829644233        2.7981665563       13.5182482855
  H        12.4992079761        1.3135895521       13.6895731593
  C        11.9250924092        2.7452261943       15.1099969175
  S         7.8627831347       10.6576749267       12.5086920113
  N         7.3820632477       10.1041424384       13.9802865473
  C         6.9312782792        7.9598036667       15.0825598103
  H         6.6497887430        5.7893955195       15.4752409203
  H        11.4338947265        7.5106501028        4.4811384943
  H        11.8719080510        6.6497007209        3.0048147961
  C        12.7008185128        5.6299679468        4.6854275036
  H         9.0690972677        7.3235636678        3.9809296672
  H         9.7972837406        6.7438987295        2.5259152804
  C         7.9633278638        5.6189251943        3.2259244930
  H        11.0692921475        4.5289009047        1.3127536423
  C        11.1861345220        1.6204030705        0.8022367105
  H        11.5177340649        3.7026172197       15.0894574294
  H        11.1064154962        2.1222760171       15.3224401994
  C        13.0013986234        2.6087301019       16.0902076024
  C         6.7435317991        8.5585338756       16.3636901234
  H        12.3901636749        5.4203010729        5.7196020548
  H        12.9211861928        4.7587097272        4.0686750636
  C        14.0569894124        6.3498219649        4.8883237309
  H         7.4996390992        5.3185142163        4.1530915539
  H         7.9975182480        4.7413014956        2.6310568625
  C         6.7343923196        6.4985623280        2.7532486533
  C        11.3446483821        0.2152521159        0.7307810997
  C        11.4279324152        2.3345841018       -0.5086643931
  H        13.6184136862        3.5171033646       16.0679759119
  H        13.5864906878        1.7491552686       15.9058585153
  C        12.4086101973        2.5147838010       17.5156205111
  H         7.1373244515        9.5402140942       16.4593863240
  C         6.3827784234        8.0570800318       17.5499318203
  H        13.8018402539        7.2768084461        5.3959542443
  H        14.5042901948        6.6386261743        3.9517370772
  C        15.0202189472        5.5599412881        5.6702143068
  H         6.5345618074        7.2208657451        3.5654393724
  H         7.0637568359        7.1615882492        1.8847432890
  C         5.4914220129        5.7226872458        2.3024756205
  N        11.2544481727       -0.6908394475        1.7645674703
  C        11.6529670928       -0.4419284712       -0.4935283836
  C        11.7627349811        1.6944994817       -1.6995141853
  H        11.4302588020        3.4646704112       -0.4178773101
  H        12.3252706044        3.5664390468       17.8863114434
  H        13.0703439980        1.9275985545       18.1272529225
  H        11.5356187299        1.9069155824       17.5476531783
  S         6.0660398128        6.3921766841       17.9771114684
  C         6.3994745074        9.0169388338       18.6958854589
  H        14.5307160581        5.0298559634        6.5222278078
  H        15.3049272855        4.7887126150        5.0378379117
  C        16.2223058848        6.4237300209        6.0692402946
  H         5.1060390090        5.1613612928        3.1539805178
  H         5.8565695426        5.0478985855        1.5117940292
  C         4.3778744201        6.6451911575        1.6843234447
  S        11.2107895537       -2.2459792089        1.1809539168
  N        11.7479527849       -1.8422188777       -0.3078159945
  C        11.9303306470        0.2495923871       -1.6573838453
  H        11.9846388264        2.2084994791       -2.5587118316
  C         5.9907827215        7.0122368156       19.6461955884
  N         6.0416026566        8.3594999973       19.7892130032
  O         6.6173501046       10.2261265249       18.6496111759
  H        16.7725446815        6.5169837618        5.1533225788
  H        15.8961254705        7.3789908005        6.5978081766
  C        16.9906556566        5.5766602864        7.0295309487
  H         4.3994879465        6.6762228002        0.5495705706
  H         3.3789662913        6.2264782853        1.9556086928
  C         4.4020804182        8.1313349436        2.1513892785
  C        12.2473259452       -0.5579841837       -2.8136725501
  S         5.7529417835        6.0896067269       21.0985676538
  C         5.8852358389        9.0869482360       21.0690309023
  H        16.5951256105        5.6989423394        8.0104021056
  H        16.8349019809        4.5313907434        6.7724364122
  C        18.5182521786        6.0220252660        7.0393546134
  H         5.3924659530        8.5866089361        1.9717521234
  H         4.2802304627        8.0703192981        3.2205232151
  C         3.2161032094        9.0138709270        1.4987943632
  H        12.0891124193       -1.6102682054       -2.6701599917
  C        12.8145842224       -0.2336601012       -4.0173255338
  H         5.2273930195        8.5642502105       21.7506286842
  H         5.3737980930        9.9806848357       20.8832866246
  C         7.3496747180        9.1903981846       21.6336468384
  H        18.9359304399        5.6531739336        7.9007246952
  H        18.7110743574        7.1413959636        7.0093063887
  C        19.2740642264        5.4149307658        5.8077845691
  H         2.3390840387        8.3817237384        1.4332083727
  H         2.9179983023        9.8536416961        2.2134201342
  C         3.5102728977        9.4418189727        0.0606631876
  S        13.2040577176        1.3280815781       -4.5455142184
  C        12.8860705153       -1.2460151604       -5.0946049102
  H         8.0207130677        9.7783499796       21.0803730757
  H         7.8051766634        8.1712306832       21.7297471490
  H         7.4218223499        9.6451557667       22.6331496352
  H        20.2892598506        5.7912258477        5.8370739445
  H        19.3673079819        4.3389513266        5.7810353936
  H        18.7065311234        5.6272581855        4.8707742196
  H         3.1089837473       10.4655972384       -0.2122601925
  H         4.5409086146        9.3356591030       -0.2671951217
  H         2.8412836985        8.7815056298       -0.4675671743
  C        13.5468268965        0.6291750376       -6.1396835040
  N        13.3358453950       -0.6931843926       -6.2210683526
  O        12.5875950412       -2.4408117428       -4.9067808746
  S        14.1550614054        1.5083852951       -7.5921203364
  C        13.5596243206       -1.5693683766       -7.4412880080
  H        13.4767107592       -2.6230168323       -7.1939792614
  H        14.4403800903       -1.3464825521       -7.9632487383
  C        12.3706719450       -1.3600992727       -8.4262871134
  H        12.5358572848       -1.3539986697       -9.5327011888
  H        11.7475915127       -0.4839072089       -8.4298856011
  H        11.6052269670       -2.1248773544       -8.1072640084
