352
 i =     5800, time =     2900.000, E =       174.8904544734
  H        12.1645743641        5.4921625418       31.8178840391
  C        11.1272227987        5.3904224866       32.1281024487
  H        11.0036172702        4.3424167591       32.2024375419
  C        10.1824577921        6.0207568088       31.1679963757
  C        11.0047740214        5.9872298484       33.5777066892
  C        10.1344914969        5.5704754790       29.6958000900
  H         9.2173957735        5.7178294790       31.6254763393
  H        10.0159386869        7.1465048440       31.2969579425
  H        11.1136739981        7.1127135384       33.4804618846
  H        10.1421080002        5.7289708713       34.1069679518
  H        11.8691008876        5.5739249386       34.0691351566
  C        10.9095413582        6.4629652561       28.6872109791
  H         9.0582785000        5.5368835760       29.2952739375
  H        10.3865125178        4.5074896338       29.6314128882
  C        11.1353532925        5.8773403836       27.3127420865
  H        10.2122642337        7.2183886449       28.4806584762
  H        11.8477327491        6.8806949259       28.9870127025
  C         9.9181967417        5.0355920836       26.7679515816
  H        12.1191421894        5.4342177385       27.3058760548
  H        11.1168729514        6.5946406227       26.4932724315
  C         8.6965285787        5.9072758574       26.2553324145
  H        10.2243769122        4.4411495782       25.8828008111
  H         9.5959861647        4.1780682381       27.4155226778
  C         7.6115555081        5.1376465468       25.5807482129
  H         8.3104982227        6.5725159715       26.9969661470
  H         9.0099996373        6.3987082254       25.3706045023
  C         7.2028697540        3.8283567850       26.2463308655
  C         8.0041621566        4.4363911735       24.2987961868
  C         6.3071025719        5.8958130483       25.3418123105
  C         7.4272794691        2.7237240639       25.3775813562
  C         6.7072066047        3.4758760034       27.5470258288
  C         8.0033359184        3.1000625043       24.2059966242
  C         8.3747309581        5.0664688322       23.1395746220
  H         6.4441378026        6.7229525370       24.6162663316
  H         5.9697248806        6.3951904050       26.1391025996
  C         5.1500873623        5.2782790905       24.5567710581
  S         6.9753424964        1.2196333023       26.1515521291
  C         6.4980115815        2.0913069623       27.6050063358
  H         6.4899701334        4.2565657250       28.3187482806
  C         8.2831067999        2.4267042075       23.0274907232
  H         8.6298491389        6.1024416660       23.1606745247
  C         8.6449237833        4.4122580692       21.9234711105
  H         5.5425992567        5.0606376915       23.4689557078
  H         5.0949474106        4.2343924688       24.9311665372
  C         3.8361772244        6.0333641169       24.4930667335
  C         6.0475652427        1.3334038532       28.8196665043
  C         8.6714313736        3.0476685169       21.8100001666
  H         7.9924944137        1.3953629118       23.0052250938
  C         8.9740787899        4.7668609184       20.5845002946
  H         3.0991392207        5.7168769369       23.8531884580
  H         4.1119849642        6.9314652939       23.8797020572
  C         3.1868135646        6.3719060075       25.7943959832
  C         6.0520826892       -0.0483743744       29.0084330645
  C         5.5570704351        2.1523213675       29.9111931084
  C         8.9996348157        2.3629237734       20.4623523653
  C         9.1239299128        3.6515272847       19.7193259968
  S         9.2534663428        6.2344142981       19.8725826602
  H         2.5225660509        7.1883421824       25.6399517521
  H         3.8412449749        6.9641887277       26.4113552938
  C         2.5932476543        5.0882180737       26.5461049951
  N         6.3590255851       -1.1398202332       28.0844894626
  C         5.7155510019       -0.6218795418       30.2830218839
  C         5.3349318475        1.6569477459       31.1560981655
  H         5.3631580485        3.1799555590       29.7502388952
  C         7.9689741947        1.4522594876       19.6832561679
  C        10.2983795960        1.5710519643       20.5174333941
  C         9.5525239166        4.0853109833       18.4652264983
  C         9.6286014515        5.4317300681       18.3114472430
  H         1.7041890423        4.7908736661       25.9703708369
  H         3.3505706840        4.2536733672       26.4077218546
  C         2.0465577326        5.4347763734       27.8884845418
  S         6.1615039730       -2.5435187873       28.8874868276
  N         5.7371150384       -2.0262904254       30.3571201000
  C         5.4638785742        0.1987828469       31.3716662951
  H         5.1229199679        2.3209531902       31.8850446267
  H         7.5175832802        0.8803073657       20.4175460184
  H         8.5250645417        0.8426796826       18.9581489801
  C         6.7302336846        2.2798308776       19.1609599410
  H        10.6575089098        1.4059464889       19.4768159828
  H        10.0635476643        0.6228342373       20.9115993829
  C        11.5856449568        2.3755522848       21.0545956578
  H         9.5386376012        3.3694182576       17.7048041422
  C         9.9756778935        6.1826761864       17.0786461897
  H         1.2047806362        4.7081197454       27.9599841624
  H         1.3928786164        6.3467919804       27.8292577928
  C         3.0766711938        5.3606391590       28.9519125894
  C         5.3183793958       -0.4756689031       32.6706380624
  H         6.8568523668        3.0440714671       18.4577374312
  H         6.3724048395        2.6989239583       20.1083324115
  C         5.5571719639        1.3992012165       18.7071889494
  H        11.4717629500        2.7035959236       22.0580386491
  H        11.7543909264        3.2546745456       20.4257390088
  C        12.7656050667        1.3541172985       21.2238647828
  C        10.1507806256        7.5477082011       16.9988998025
  C        10.3396147791        5.4167155289       15.8483723034
  H         3.3689929949        4.3794048666       29.1456364116
  H         3.8279845794        6.1087759355       28.7890575458
  C         2.4240476555        5.7847555845       30.2725812951
  H         5.5794133824       -1.4565148165       32.6633890534
  C         4.8595551361       -0.1228854332       33.8501380181
  H         4.9888427230        0.9407681691       19.5066162875
  H         6.0584273078        0.6993101534       18.0528839227
  C         4.6221914182        2.3009544997       17.8978113918
  H        12.4896250828        0.9581810490       22.2166883703
  H        12.8135995761        0.5612618028       20.4912199687
  C        14.1062069518        2.0938274151       21.3840856696
  N        10.0901962766        8.4664442311       18.0475074232
  C        10.4880546985        8.1005804860       15.7639460491
  C        10.7610654526        5.9457497753       14.6300634132
  H        10.1438401216        4.2980108974       15.8962114119
  H         3.1503653774        6.3162120551       30.9598596984
  H         1.5712112002        6.4103921990       30.1872787831
  H         2.1368676328        4.7948048901       30.6750465678
  S         4.4253268348        1.4930798534       34.3331967881
  C         4.7447364543       -1.1674196816       34.9111321870
  H         4.5910673275        3.3297592732       18.2679377522
  H         4.9119069504        2.3975379499       16.8453914151
  C         3.2055106719        1.7770494040       17.8091047580
  H        14.2871832763        2.9301344072       20.7003229432
  H        14.8415785228        1.3674101485       21.1130282034
  C        14.4032167077        2.5681472301       22.8318961088
  S        10.3892967331        9.9369671627       17.3295064689
  N        10.7761307368        9.4689247632       15.8374129855
  C        10.8152485503        7.4383745645       14.5803319697
  H        10.8934111519        5.3518034368       13.7828142227
  C         4.3532235825        0.8195021589       35.9210646740
  N         4.3890173349       -0.5438296410       36.0125376853
  O         5.0499166879       -2.3361608893       34.7123441276
  H         2.7218663110        2.3258549507       16.9326428056
  H         2.8105269976        1.9456769495       18.7684631886
  C         3.1093152216        0.3171867409       17.3806017313
  H        13.7293881629        3.3862180817       23.0753714479
  H        14.2576122574        1.6707356121       23.4516153921
  C        15.7918193237        3.1808450064       22.9331457863
  C        11.0427628796        8.1683572814       13.4202580185
  S         3.7204229606        1.7022860735       37.3226935717
  C         4.4053962003       -1.2438097304       37.3231608287
  H         2.2900204621        0.2859662916       16.6467356216
  H         3.9946622788        0.1186400151       16.6683814360
  C         2.7717380663       -0.7490192048       18.3906858123
  H        15.7818840432        4.0124097025       23.5239881480
  H        16.0546862986        3.5488267925       21.9554294341
  C        16.9106164397        2.4340694382       23.6773115110
  H        10.4138432424        9.0903196973       13.2701950285
  C        11.4803352720        7.8111076920       12.1804762947
  H         3.6723104131       -0.8328954834       37.8548734756
  H         4.0234622909       -2.2387618808       37.0940393791
  C         5.6490666061       -1.1294293394       38.1205892744
  H         3.4249708163       -0.8204367876       19.3217505898
  H         2.8469174579       -1.5889944714       17.7532604435
  C         1.3109164226       -0.7622673678       18.9347642660
  H        17.3271375153        2.9500235851       24.4885449221
  H        16.5995201092        1.4659041041       24.0912706997
  C        18.0918399019        2.1796532497       22.8409383429
  S        12.0472739418        6.2549237283       11.6169874387
  C        11.4597385180        8.8605915556       11.1023661989
  H         5.8528970871       -2.0082701929       38.6583387675
  H         6.4309518744       -0.5528248730       37.5787895681
  H         5.4375749456       -0.3387646659       38.9415780675
  H         1.3885421725       -0.2313841737       19.8382673782
  H         0.9292216470       -1.7686184175       18.9775443239
  H         0.7045487074       -0.2210585300       18.2170848130
  H        17.9556047905        2.8302245592       21.9886195950
  H        18.0774415309        1.2297937274       22.4214933536
  H        19.0210286869        2.2830533584       23.5075296585
  C        12.3653095194        6.9653351142       10.0674859122
  N        12.1721358206        8.3153056423       10.0767993310
  O        11.1161244396       10.0548299404       11.2541122939
  S        13.4486807275        6.3028939134        8.8656972553
  C        12.4288687652        9.1578506285        8.8274953486
  H        12.5966055866       10.2046346624        9.2132441572
  H        13.3638308583        8.9595074461        8.2977293180
  C        11.2220916989        8.9983319490        7.9175449647
  H        10.3507352176        9.6277970501        8.3073488554
  H        11.5686731291        9.5520888982        7.0767562538
  H        10.9976166634        7.9606616205        7.5242967449
  H         4.5812131886        1.6592470834       12.8328785700
  C         4.0108973600        2.4994213487       12.9207617526
  H         4.7929619480        3.3097969638       12.9221038538
  C         3.2318352638        2.5180777356       11.5871759661
  C         3.1451157095        2.4675347195       14.2000308965
  C         4.0994753328        2.5383576434       10.3434741193
  H         2.7673787253        3.4695357326       11.4877580362
  H         2.3837250157        1.7810845704       11.5913302855
  H         2.1849352709        2.0987087745       14.1027145037
  H         3.1204639516        3.3556931799       14.7296167093
  H         3.7288491021        1.7930166128       14.8531882629
  C         4.6376381544        1.1918667414        9.8418709058
  H         3.4738017361        2.8837551898        9.5593586165
  H         4.7984126988        3.3187092981       10.3428951881
  C         5.0768928743        1.1717386635        8.3808268038
  H         3.8190853193        0.4707795711        9.8686714997
  H         5.2753236960        0.9159604227       10.6170267034
  C         6.2886550745        2.1423941857        8.2510329864
  H         4.1396010144        1.4832320744        7.8397865629
  H         5.3780327630        0.1236905669        8.0534370557
  C         7.6058153875        1.6007639345        8.9111884549
  H         6.6078054284        2.4616606166        7.2800908496
  H         5.9598145306        3.0883142253        8.5855592030
  C         8.8601469993        2.5751562866        9.1947699079
  H         7.8913612559        0.7879817088        8.2588703887
  H         7.3571587020        1.1246820217        9.8553847726
  C         8.4663953156        3.9042569420        9.8881451697
  C         9.2119963898        3.3052305024        7.9558005364
  C        10.0916307950        1.8672254648        9.9473381002
  C         8.8881250276        5.0090819800        9.1492888701
  C         7.9704312367        4.2761582125       11.1578621118
  C         9.3217014056        4.6688374841        7.8619589740
  C         9.6742400274        2.6213550197        6.7702158115
  H         9.8192129785        1.3716875845       10.7943365628
  H        10.4491787402        0.9386098164        9.3921721889
  C        11.3074170649        2.7349155337       10.2679930818
  S         8.5178277557        6.5320960883        9.9219928187
  C         7.9989275297        5.6025487451       11.2910666279
  H         7.7477227208        3.5274193665       11.8643879251
  C         9.6542971766        5.2510116962        6.6454179314
  H         9.7433610940        1.4882488257        6.8349515578
  C        10.0335772345        3.1888170000        5.5672133484
  H        11.0948521929        3.6539899678       10.7400856968
  H        11.9898857127        2.9192501760        9.5200511430
  C        12.3959854666        2.1853738760       11.2264064041
  C         7.5093206092        6.3225878964       12.5733456121
  C        10.1041347350        4.5609278851        5.4759863069
  H         9.5454423322        6.2975773865        6.5668419204
  C        10.4636974249        2.7953142541        4.3190439868
  H        13.1792866837        2.8545342702       11.2709580464
  H        12.6548839670        1.2262259795       10.8005356056
  C        11.9591675466        1.8511743861       12.6882535886
  C         7.5889475076        7.7253031108       12.7234201915
  C         6.9327559237        5.5396037953       13.7409125351
  C        10.5971647927        5.2714641796        4.3052931950
  C        10.6620524355        3.9250791814        3.5127136257
  S        10.5854084770        1.3059124178        3.5004009044
  H        11.2190269525        2.5172693561       13.1093322074
  H        11.5468212696        0.8389850116       12.5888417827
  C        13.1207750705        1.7763043964       13.6863696986
  N         7.8535804621        8.6748760714       11.7252792466
  C         7.5573078918        8.2823794547       14.0143334939
  C         6.8310077038        6.1943929841       14.8969046298
  H         6.7130115071        4.4784038373       13.7379494115
  C        11.9404391305        5.9400380902        4.4716219243
  C         9.5438358520        6.1417731326        3.6369439479
  C        10.9825342658        3.5275341892        2.2204075236
  C        11.0776602688        2.1444100990        2.0527311671
  H        13.7513571392        2.6071561854       13.3704495199
  H        13.7597476203        0.9734805079       13.5734016831
  C        12.5568986218        1.9485286898       15.0696564371
  S         7.9462994585       10.1822272553       12.5117439236
  N         7.7102182099        9.6897664463       14.0543066188
  C         7.1690020462        7.5626818545       15.1783579797
  H         6.2988242861        5.6453829978       15.6913467488
  H        11.9504302145        6.7614759562        5.1436583941
  H        12.2712007472        6.4826742293        3.5861377060
  C        12.9844570199        4.9140581023        4.9222784721
  H         9.2614178366        6.9048085808        4.4081670330
  H         9.8293464279        6.6146644554        2.7235018965
  C         8.2553265001        5.4330884103        3.1760775465
  H        11.2864830424        4.2454597045        1.4793876463
  C        11.4830260691        1.4442829702        0.8189260177
  H        11.8738162444        2.8585576248       15.1994719206
  H        11.8240697130        1.2018865366       15.1480851486
  C        13.6486060927        1.8269426018       16.2259389968
  C         6.8654374022        8.2453413476       16.4022869647
  H        12.6080143178        4.4789860791        5.9050452272
  H        13.1396064938        4.0097287763        4.2968482958
  C        14.2609980819        5.6832979401        5.3294337782
  H         7.8297584447        4.7832585905        3.9390630083
  H         8.5149454318        4.8149910971        2.2035106961
  C         7.1919746790        6.4516741850        2.7466656384
  C        11.5190410230       -0.0542822636        0.6867467145
  C        11.7014478207        2.1930724230       -0.3993566049
  H        14.2817860110        2.6977877427       16.1571186323
  H        14.3341736787        0.9771617669       16.0986399514
  C        13.0508291547        1.9048531600       17.6331004333
  H         7.0528456062        9.2828933314       16.3733341915
  C         6.5914998393        7.7884388933       17.6345107856
  H        13.8424979385        6.4663922463        5.9980552789
  H        14.4365313728        6.2093319730        4.3911502268
  C        15.5687014967        4.8505304408        5.7299705521
  H         6.6284859209        6.9501770763        3.4609944234
  H         7.5713965667        7.0350896355        2.0089143850
  C         6.0171762737        5.7406424601        2.0549740778
  N        11.3563932521       -0.9355555687        1.7288518938
  C        11.8702084598       -0.6469837246       -0.5293341344
  C        12.1569175004        1.5974095434       -1.5615808847
  H        11.4017892426        3.2487819313       -0.5343581159
  H        12.2362148488        1.1520653019       17.9071330191
  H        12.6416304847        2.9695825332       17.5938387454
  H        13.7012157196        2.0181960402       18.4581044763
  S         6.1608079032        6.1795504399       18.1123723627
  C         6.6222876076        8.7319072287       18.8085197383
  H        15.3435056250        4.2550464877        6.5957469115
  H        15.6944404964        3.9605469454        4.9998925250
  C        16.7580028611        5.8267237634        6.0583342711
  H         5.5249494538        5.1770644510        2.7925193707
  H         6.3921155441        4.9223845603        1.3560825951
  C         5.1601144725        6.6162212479        1.1864822372
  S        11.3833156101       -2.4518401965        1.0885985633
  N        11.8146157936       -2.0485553047       -0.5099457342
  C        12.2191162427        0.1052809768       -1.6561689563
  H        12.0840197695        2.3088857009       -2.4731756801
  C         5.9965894392        6.8456067454       19.7705551401
  N         6.1249252064        8.1416790537       19.8898090606
  O         6.7422798210        9.9300136484       18.6701857072
  H        17.0851860562        6.3865649576        5.2275742446
  H        16.4487660909        6.7330703371        6.6713419815
  C        17.7922913932        5.0225649142        6.8612090871
  H         5.7548802498        7.3612975843        0.5322368737
  H         4.4561344605        6.0318394909        0.5372495282
  C         4.2610280996        7.5842672304        1.9949229427
  C        12.5225856076       -0.5407783796       -2.9080031876
  S         5.7058908986        5.7952920909       21.2095314560
  C         6.0204928286        8.8129686585       21.1634318932
  H        17.4717370385        4.6698260436        7.8320534564
  H        18.0285929708        4.1121353373        6.2269510324
  C        19.0937760942        5.7855691684        7.0405361391
  H         4.7989665268        7.8897524340        2.8810308375
  H         3.4939555948        6.8811942688        2.2469717594
  C         3.6293042584        8.6669224483        1.1262097514
  H        12.3800756939       -1.5357245024       -3.0223841355
  C        12.9815708114       -0.0215067103       -4.1069591793
  H         5.5992751218        8.2667015254       21.9791385673
  H         5.3859149572        9.6693804724       20.9503851544
  C         7.4526939570        9.0666007045       21.6911033869
  H        19.7233615689        5.1198079693        7.6058019085
  H        19.1609056460        6.6785433281        7.7455793825
  C        19.7831406703        6.0528798548        5.6841279251
  H         3.5536474542        8.2637718290        0.1238859691
  H         2.5774780639        8.8429401118        1.3565522439
  C         4.5074611397        9.9310029833        1.1279355468
  S        13.4321610068        1.6647840186       -4.5134699611
  C        13.2058800131       -0.8991935840       -5.3197871594
  H         8.2394235012        8.6441068670       21.0402851696
  H         7.7761613276        8.6720920785       22.7345541827
  H         7.6186987975       10.1102731362       21.7606665502
  H        19.1942519084        6.7666136080        5.0872217744
  H        20.6860129403        6.4987537499        5.6989485157
  H        19.8921051901        5.1859708498        5.0673637150
  H         4.6509075539       10.1894423067        2.2119382648
  H         5.5672272801        9.7778187652        0.6872111118
  H         4.0775296220       10.8054088394        0.6259320909
  C        14.1078641478        1.0302191934       -6.0632503474
  N        13.9748283426       -0.2819522352       -6.2474217156
  O        12.7795045388       -2.0952696698       -5.3307263454
  S        14.8780089666        2.1131417972       -7.2182259962
  C        14.1141956532       -1.0045707502       -7.5591407309
  H        14.3726228712       -1.9309455982       -7.3027720912
  H        15.0464816462       -0.5939632465       -7.9240750325
  C        12.9141069483       -0.7965884268       -8.4322195107
  H        13.2633907825       -0.8185458769       -9.4633374227
  H        12.3923280862        0.1196218526       -8.2999771835
  H        12.2596893370       -1.7060564781       -8.5484794657
