352
 i =   121700, time =    60850.000, E =        99.2216904571
  H        11.4141958406        7.7504184476       32.0948068850
  C        11.2792147201        6.6898454606       32.3817080549
  H        12.0128357780        6.3913486571       33.1340987624
  C        11.7959937096        5.9993030672       31.1431824605
  C         9.8530908583        6.3386329741       32.7720666491
  C        10.8547026523        5.8287931109       29.9012041410
  H        12.7850174008        6.4567603846       30.8561173755
  H        12.0918509076        4.9433977776       31.4403843961
  H         9.3421621548        6.9794011389       32.0725921255
  H         9.7009864863        5.3237067386       32.5668564448
  H         9.5455485734        6.6001905254       33.8145382503
  C        11.6531755458        5.4012187567       28.6637443579
  H        10.3929658454        6.7653874645       29.6645906596
  H        10.1437379111        5.1045907720       30.2286002547
  C        10.8390143783        5.8408096565       27.4761149243
  H        12.6517508486        5.7935703007       28.7056290544
  H        11.7134167773        4.2911931999       28.6549886124
  C         9.5500116921        5.0438206400       27.1608926716
  H        11.5147516852        5.5945272076       26.6732987656
  H        10.6329898752        6.9608506576       27.4608291788
  C         8.5076289260        5.8691105046       26.4628228327
  H         9.7937107473        4.1579812850       26.5220561593
  H         9.1202306924        4.6045051147       28.0410415462
  C         7.3381273289        5.1732282803       25.6982696642
  H         8.0999712428        6.4951905415       27.2551001050
  H         9.0660576701        6.5888244093       25.8467054972
  C         6.9140663577        3.8291409116       26.3470460256
  C         7.7458322535        4.4772321292       24.4763456971
  C         6.0187586692        6.0164643726       25.6546058026
  C         7.2455917660        2.7545317341       25.5730006159
  C         6.2151384877        3.4430836768       27.5146612254
  C         7.8104752214        3.1237702866       24.3953043258
  C         8.2202930702        5.1082411521       23.3392472145
  H         6.1438311390        6.9204344409       25.0776034919
  H         5.8449819127        6.3699700068       26.6944691334
  C         4.8149437508        5.2425581995       25.0711714360
  S         6.9556321978        1.1648670897       26.4001449755
  C         6.1721633956        2.0385189078       27.7099061300
  H         5.7305315792        4.2401972496       28.2282560395
  C         8.2919559465        2.3837791484       23.3141634651
  H         8.2664688043        6.1838278319       23.3393490594
  C         8.6662952893        4.4142810563       22.2414396689
  H         5.1168027392        4.8852332681       24.0526110393
  H         4.6571914623        4.3638581486       25.6264628163
  C         3.4850324443        5.9699478733       25.1308515395
  C         5.7326510680        1.2716920750       28.8795578141
  C         8.6849777769        3.0743189877       22.1550960907
  H         8.2956628675        1.3002478565       23.2931390677
  C         9.0511270465        4.7799223704       20.9810495703
  H         2.8948717266        5.3821684350       24.4278958871
  H         3.5972369282        7.0092637815       24.8332188861
  C         2.7919830247        6.1161165218       26.5142873021
  C         5.8010336184       -0.1137442312       29.1180456288
  C         5.2124486487        2.0288938490       30.0442840152
  C         9.1127151472        2.3507443140       20.8744772677
  C         9.2658005098        3.6913464141       20.1163577540
  S         9.1977807122        6.2880877030       20.1764369137
  H         2.0002549632        6.7952945228       26.3684030491
  H         3.5138907648        6.6037370531       27.1531633165
  C         2.1889413048        4.7598748494       27.1434424922
  N         6.2285688245       -1.0890140091       28.2230150551
  C         5.4346968886       -0.6775780607       30.3551213673
  C         4.8610284415        1.4491905551       31.2378933863
  H         4.9486485164        3.0447570849       29.9686213005
  C         8.0418647439        1.4399962084       20.2931296069
  C        10.4136372090        1.5915118086       21.1106376539
  C         9.7366825047        4.0585792018       18.8609210710
  C         9.6515796426        5.4707849435       18.7378101099
  H         1.6934303691        4.2472782322       26.3497533954
  H         3.0738536680        4.0887196432       27.4734309840
  C         1.3007671167        4.9951383711       28.4202930072
  S         6.1139489599       -2.5060990826       28.9420156009
  N         5.6438006817       -2.0170429685       30.4101186887
  C         5.1308389298       -0.0014385834       31.4938184723
  H         4.4508745416        2.0112025739       31.9645742117
  H         7.6920797288        0.7712953805       21.1179681002
  H         8.3872867640        0.9069096402       19.4311956751
  C         6.9527825825        2.3040134612       19.6868176692
  H        10.7403352365        1.1168155118       20.1830614753
  H        10.2645217490        1.0146499926       21.9332627381
  C        11.6315958160        2.4461694776       21.6094753640
  H        10.0956780583        3.3095678614       18.2181130590
  C         9.9175717420        6.1497943668       17.4479596089
  H         0.6990437744        4.0510846390       28.5768793427
  H         0.4845206593        5.6418605620       27.9767489590
  C         1.9717750215        5.6742212106       29.6145635134
  C         4.9067565905       -0.6824853559       32.7476359037
  H         7.2804468894        2.7208864565       18.6891020078
  H         6.6796405465        3.2131238205       20.2802899978
  C         5.6584662354        1.5055933067       19.3106761972
  H        11.4961165820        2.8072793023       22.6206624443
  H        11.8180996798        3.2535011202       20.9187686010
  C        12.8423341438        1.5680297175       21.5210709027
  C         9.9459891670        7.6018536740       17.2958052815
  C         9.9284052495        5.3097814183       16.2186171119
  H         2.9828958738        6.1923693237       29.4346979650
  H         1.3506961664        6.4553304114       29.9990280533
  C         2.1018674327        4.7789825024       30.8655043066
  H         5.0259529118       -1.7743402497       32.7962599664
  C         4.7108090616       -0.2191765133       34.0033900779
  H         5.2946649702        1.2190039949       20.2787636292
  H         5.9460634078        0.5897135629       18.7936146967
  C         4.5581159643        2.3807182446       18.7350710544
  H        12.7964083770        1.0160494267       22.3904799278
  H        12.8812416651        0.8181463050       20.6849034241
  C        14.1158714364        2.5061546012       21.5164153427
  N         9.7807598045        8.5445468416       18.3083918569
  C        10.0557402154        8.1653489335       16.0509777666
  C        10.1904633951        5.9480935447       14.9952974176
  H         9.8454983829        4.2864458905       16.2655305812
  H         2.9753477354        4.0977111809       30.8067645091
  H         2.2959556766        5.4237598494       31.7271413367
  H         1.3714984263        4.0301556859       31.1188187340
  S         4.3092026855        1.3650894678       34.4552392521
  C         4.7393519375       -1.1819985540       35.1579540680
  H         4.4358539310        3.2996416993       19.3475465459
  H         4.8512509785        2.6755515040       17.7404644086
  C         3.2399151554        1.6244031319       18.6420687738
  H        13.9004949858        3.3614142404       22.0795755244
  H        14.2610806752        2.9241269251       20.4921627208
  C        15.5001570399        1.7996978887       21.9010923088
  S         9.7173169497        9.9853771967       17.5982022937
  N         9.8678034754        9.5319535649       16.1161299718
  C        10.2541518488        7.4510926819       14.8746115379
  H        10.2364451778        5.3458840675       14.0829121440
  C         4.3100755334        0.7963805361       36.1645816250
  N         4.4149242980       -0.5453806944       36.3005686496
  O         5.0520635913       -2.3378947041       35.0483951789
  H         2.4267588519        2.2223497158       18.2020525380
  H         2.9297226827        1.2446780165       19.6690035037
  C         3.3819575288        0.4523031660       17.6735677016
  H        15.3181809401        0.8432964288       22.4652486961
  H        15.7901466289        1.4569471605       20.9128322435
  C        16.4920930155        2.8367117141       22.4151749246
  C        10.5136411995        8.2408992030       13.7020860180
  S         3.7781058400        1.7898797266       37.5808268190
  C         4.3252197278       -1.2509007859       37.5880513275
  H         3.8539857548        0.9327782479       16.8314613176
  H         4.0473684575       -0.2714471165       18.1780807977
  C         2.0846265110       -0.3285170046       17.2973410632
  H        15.9798236215        3.3726576587       23.1247387410
  H        16.9361334427        3.5568786192       21.7504232142
  C        17.5381297044        2.0888949347       23.1474045265
  H        10.1915704109        9.2318512287       13.7401194744
  C        11.0716171005        7.9351590981       12.4790129188
  H         3.5932585603       -0.9261425371       38.2952566453
  H         3.9814135988       -2.2817856632       37.3842566622
  C         5.7181038242       -1.3364688507       38.2589731484
  H         2.1025376853       -0.2421303484       16.1990224985
  H         1.2687889107        0.2545210318       17.8150518237
  C         1.9820344820       -1.7737739502       17.6659867166
  H        17.8435743047        1.1055527191       22.7561014767
  H        18.4351198490        2.7483745118       23.1774591956
  C        17.0453281436        1.8293256352       24.6110584308
  S        11.6229195288        6.4025768051       11.9324678550
  C        11.2231388945        9.1283196287       11.6192025860
  H         5.7711561455       -2.1829929383       38.9124662413
  H         6.5951347660       -1.4168740449       37.5724937400
  H         5.8616521521       -0.3523917978       38.7485533888
  H         2.8893655679       -2.3257396368       17.4239925021
  H         1.0418170058       -2.2656567230       17.2349103394
  H         2.0226586638       -2.0227927735       18.6603817070
  H        16.1206109344        1.2367292648       24.6254774796
  H        16.7719788218        2.8133903618       25.1410157229
  H        17.7372732199        1.3520440287       25.2367635390
  C        11.8161889852        7.2435595428       10.4427867740
  N        11.7585486212        8.5852505952       10.4331766548
  O        10.8966680899       10.3546196711       11.8301555784
  S        12.4000111666        6.5178419556        8.9214159219
  C        11.7984310588        9.3441337714        9.1712392291
  H        12.0398458242       10.3809439300        9.1887726129
  H        12.5400706807        9.0355172244        8.4691245958
  C        10.4048986930        9.3894158550        8.5832802552
  H        10.4435179127        9.2444048174        7.4780275294
  H         9.6781710382        8.7321977840        9.0398332346
  H         9.9299022215       10.3867568199        8.8534617748
  H         3.9295886123        3.7546013745       12.6223073123
  C         3.2011331421        3.0520883543       12.8406894174
  H         2.5079757090        3.6310247172       13.5581742294
  C         2.4032400965        2.6914172675       11.5244524787
  C         3.9276754685        2.0363354867       13.6781722975
  C         3.3562386077        2.8931520025       10.3019161762
  H         1.5217507684        3.3426807360       11.4094611426
  H         2.1766941808        1.7026316943       11.4818269285
  H         3.2985337166        1.3130973129       14.0570210674
  H         4.4537467070        2.5524786844       14.5227203142
  H         4.7374795662        1.5981572215       13.0155552905
  C         3.9515677228        1.5237108316        9.9234855374
  H         2.7691617050        3.3139313672        9.4553332538
  H         4.0721284219        3.6466089256       10.6176062185
  C         4.8882580701        1.7440985781        8.7654520522
  H         3.0672674167        0.8461383068        9.7082585322
  H         4.4946153097        0.9800290357       10.7574327451
  C         6.2615704948        2.4271276106        9.2678168701
  H         4.3277613451        2.4274340128        8.0868790999
  H         4.9350946122        0.8957536961        8.1477276964
  C         7.5988789478        1.6659524118        9.1177226184
  H         6.4601933592        3.2878472718        8.6706207865
  H         6.1261936372        2.7124675747       10.3398632507
  C         8.8715154186        2.5320548458        9.2088780479
  H         7.4443167303        1.2132822719        8.1035247922
  H         7.5923182459        0.7457264068        9.7884897848
  C         8.6394142308        3.8369438114        9.9561774440
  C         9.1628313524        3.2460142758        7.8918861284
  C        10.0906229453        1.7181179886        9.7661640692
  C         8.5997707263        4.9687363370        9.1249055019
  C         8.3449966083        4.1727385345       11.3353873723
  C         9.0906851823        4.6028924902        7.8723060276
  C         9.5427074180        2.6580781353        6.6953362427
  H         9.8019369380        1.1953473863       10.6945596824
  H        10.2425532223        0.8426583753        9.1538880961
  C        11.3119048146        2.6963675572       10.1011418876
  S         7.9884799353        6.4207918261        9.8938858586
  C         7.8944378055        5.4956086477       11.3842529047
  H         8.4809493543        3.3726021380       12.0586771859
  C         9.5354242507        5.2484814448        6.7524421554
  H         9.6340711466        1.5762990832        6.7891344838
  C         9.8682351269        3.3179825822        5.5266396309
  H        11.1726896795        3.7321390763       10.3377503856
  H        11.8374181220        2.6566104339        9.1974941006
  C        12.1922423249        2.2001494519       11.2767185291
  C         7.4958443114        6.2078772096       12.6097318018
  C         9.9190302340        4.6236699456        5.5390812985
  H         9.4165450898        6.3311329208        6.7332286985
  C        10.2995865907        2.9500316907        4.2613051519
  H        13.1805883591        2.8145233093       11.2110793275
  H        12.5372048524        1.1981514281       10.9337221484
  C        11.5233185283        2.2653644917       12.6619194868
  C         7.3666010419        7.6084075788       12.7828546439
  C         7.1647477770        5.4064954669       13.7748276365
  C        10.4143261817        5.3804549701        4.3196239441
  C        10.5593712133        4.0614086744        3.5210283853
  S        10.6782462149        1.4607643708        3.4844348570
  H        10.9725615529        3.1737860295       12.7893498934
  H        10.6676522461        1.4857774970       12.8142868713
  C        12.5430375708        2.0685354548       13.7459483312
  N         7.5447653000        8.5891499562       11.7742645208
  C         7.0957036059        8.1888299055       13.9844072687
  C         6.9140669898        6.0075112057       15.0358509181
  H         7.2397111610        4.3775952096       13.7483763843
  C        11.6973225854        6.1256634993        4.6203181966
  C         9.3359105041        6.2237383200        3.7003652787
  C        10.9277650702        3.7718566133        2.1840648109
  C        11.1763283086        2.3894829186        2.0553797069
  H        13.4937690961        2.4619991719       13.3510078395
  H        12.6980761757        1.0211214553       13.6345327453
  C        12.1216953491        2.4979448344       15.1192869046
  S         7.5772809589       10.0651633453       12.4590838243
  N         7.2258528255        9.6019736225       13.9560349233
  C         6.8426887550        7.4382539936       15.1721239968
  H         6.8282002659        5.2781745521       15.8593327789
  H        11.5182414297        6.8658195998        5.3574464944
  H        12.1634880927        6.6244347152        3.7456707408
  C        12.7111609869        5.2422497081        5.3053215330
  H         9.1789392758        7.0373721491        4.3931020659
  H         9.6662145449        6.6861976375        2.7739894612
  C         8.1497762881        5.5172162278        3.3156597890
  H        11.1228260577        4.5625282532        1.4881209191
  C        11.6141569467        1.6446724817        0.8464665079
  H        11.7302871020        3.5276292839       14.9532848972
  H        11.3579497354        1.8182663251       15.4631790755
  C        13.2849824225        2.3828992820       16.0161025277
  C         6.6063954307        8.1122516008       16.4293150390
  H        12.4372729081        4.8157766151        6.2927803002
  H        12.9521703255        4.3358590000        4.7369590689
  C        14.0242965990        5.9628685329        5.5715338680
  H         7.7144670004        5.0119182228        4.1399247737
  H         8.3737754438        4.7479921022        2.5290812641
  C         7.0968733860        6.4757343094        2.7269653218
  C        11.6329917650        0.2330393983        0.7239484832
  C        11.7541756625        2.3774255833       -0.4586604708
  H        14.1325547238        2.8748373643       15.6092316124
  H        13.6615742915        1.3568993952       16.0829176174
  C        13.0543515720        2.7547888739       17.4730698712
  H         6.5224680756        9.2276774352       16.2697413693
  C         6.4523297216        7.6207342762       17.7191845140
  H        13.8503631943        6.6999029848        6.3158564884
  H        14.4047160430        6.5674911221        4.7169947483
  C        15.0747996216        4.9181232594        6.2155293148
  H         6.7747167481        7.2965027096        3.3095480021
  H         7.4952046449        7.0222655455        1.9134133232
  C         5.8773151207        5.6569452834        2.2651927817
  N        11.4461837353       -0.7087111692        1.7648592385
  C        11.9693895217       -0.3867360611       -0.5141580879
  C        11.9509683382        1.7097074446       -1.6397719340
  H        11.7414460938        3.4355364865       -0.5594084016
  H        12.1494747780        2.2600564706       17.8656754572
  H        12.7295892036        3.7893482821       17.5151069082
  H        13.8676745128        2.4231644759       18.0706154757
  S         6.0740356098        6.0358668332       18.2223825747
  C         6.4981888407        8.6503313326       18.7366009449
  H        14.6966416323        4.0256972357        6.7363067253
  H        15.5331086872        4.4349422054        5.3249428971
  C        16.1206116370        5.5809029725        7.0645178649
  H         5.4424054868        5.1149388025        3.0701485624
  H         6.1829545394        4.7684744126        1.6826884229
  C         4.8035314750        6.3717984247        1.4176234163
  S        11.4164993566       -2.1668010834        1.0414293661
  N        12.0807204210       -1.7645873844       -0.3991161246
  C        12.2304196629        0.2422699304       -1.7514663041
  H        11.9005722838        2.3003134726       -2.5648879414
  C         5.8213771087        6.7451285948       19.8191577748
  N         6.1002994361        8.0873992513       19.8596957555
  O         6.6228312931        9.8464446667       18.5553367017
  H        16.4723676768        6.4096595589        6.4975473246
  H        15.6860777722        6.0073858167        7.9701393603
  C        17.2958437377        4.5878111274        7.3212935592
  H         5.2503743597        6.8792037217        0.5868545901
  H         4.1271207202        5.6709754045        0.9120213397
  C         3.9676722996        7.2545104569        2.3351167784
  C        12.4163749331       -0.5292472747       -2.9057867685
  S         5.3348156273        5.9045050110       21.2888386797
  C         6.0741812569        8.8808228457       21.0831651743
  H        17.0707801178        4.0324006329        8.2383031936
  H        17.4535638481        3.8081719092        6.5452414162
  C        18.5890919744        5.3520774354        7.4322872230
  H         4.4156248736        7.1013973249        3.3394116619
  H         2.9513599748        7.0679871371        2.4225435225
  C         4.1630766685        8.7548020270        1.8543185237
  H        11.8965952818       -1.3901189680       -2.9883484643
  C        12.9701044105       -0.2707295415       -4.1012144190
  H         5.3476500947        8.4744884415       21.7404368580
  H         5.6572473248        9.8743661364       20.9313552950
  C         7.4599230601        8.9022501513       21.7847494608
  H        19.2614877594        4.8197146092        8.1515671250
  H        18.4129882749        6.3706763015        7.7383023318
  C        19.3297612363        5.4539218906        6.0864724154
  H         4.1675205407        9.4098865415        2.8157240914
  H         5.1544776436        8.8851050110        1.3874101133
  C         3.1690047622        9.1920637909        0.8785171515
  S        13.7447497147        1.1860380413       -4.4925697105
  C        12.8633396638       -1.3798723599       -5.1308649084
  H         8.2818261132        9.1926144992       21.0784636057
  H         7.7456342808        7.9020238995       22.1292170625
  H         7.5351801362        9.6761105416       22.6560462039
  H        18.8114739695        5.1526626374        5.2327507410
  H        19.5655154756        6.5294349734        6.0076273717
  H        20.3282977457        4.9500576626        6.0101566870
  H         2.2015575839        8.6873036455        0.9876659875
  H         2.8625120259       10.2390757345        0.9284067330
  H         3.4902713064        8.9826697010       -0.1344075722
  C        13.8909115983        0.4041619334       -6.0019709910
  N        13.4240045665       -0.8487282205       -6.1797112278
  O        12.3601627655       -2.4950209539       -4.9444553399
  S        14.7982057200        1.1462740839       -7.3145644342
  C        13.4095406474       -1.5441832991       -7.4755195059
  H        13.3086819048       -2.6169503429       -7.3792554176
  H        14.3524907936       -1.3864808426       -7.9892097981
  C        12.2892758213       -1.0231317935       -8.3660974113
  H        11.9643428132       -1.7696901575       -9.1129161361
  H        12.4697583834       -0.0395195445       -8.7762288459
  H        11.3990619716       -0.9110719733       -7.7220694732
