352
 i =    11100, time =     5550.000, E =       134.8466760662
  H        10.0144441674        4.3365143143       31.7191038224
  C        10.1173374186        5.4234484934       31.9532658426
  H         9.1441086827        5.9036093692       32.0109672406
  C        10.8524126528        5.9359412155       30.7913188132
  C        10.7596710439        5.9781581413       33.2314395347
  C        10.6448136906        5.2187856418       29.4556811624
  H        10.6462547320        6.9395085749       30.8500950980
  H        11.8973555211        5.8038171858       31.0641183225
  H         9.9761449089        5.9268887541       33.9685332341
  H        11.5248257746        5.4075436838       33.6543154336
  H        11.0468257562        7.0403021366       33.3269681812
  C        10.7417948898        6.2586286641       28.2974538259
  H         9.7560776203        4.6041248034       29.4490382754
  H        11.4723217470        4.5234957690       29.2820853931
  C        10.9987689699        5.7928216254       26.9040506831
  H         9.9237911726        6.9902448286       28.3872818912
  H        11.6605008757        6.8285019762       28.5137594079
  C         9.8446726644        4.9967632587       26.3910655632
  H        11.9323938396        5.2225414393       26.7568919479
  H        11.2186185345        6.6508933337       26.3008401502
  C         8.6906605747        5.8766047810       26.1147876454
  H        10.2532798851        4.4958523770       25.5431851829
  H         9.5922842158        4.2603400178       27.1906949361
  C         7.3875428407        5.2180499627       25.4828146663
  H         8.3746534594        6.1492006591       27.1209472742
  H         8.9925867468        6.8190501353       25.5410429357
  C         7.0997869194        3.8566721766       26.1800688445
  C         7.8573651652        4.4984182384       24.2206701457
  C         6.1258081128        6.1768024226       25.4195927129
  C         7.3881697850        2.7563036797       25.3225274918
  C         6.4902270389        3.4936289180       27.3318530513
  C         7.8505406470        3.1498785076       24.1157726877
  C         8.2036702606        5.0965150542       23.0197124769
  H         6.3632252343        7.0591293519       24.8376500483
  H         5.8310536076        6.5133965910       26.4376516047
  C         4.9440822672        5.4254810759       24.7923410303
  S         6.8535006865        1.3321226771       25.9305853641
  C         6.3469117473        2.0918676475       27.3810902287
  H         6.0936118974        4.1905548201       28.0737236744
  C         8.2533321705        2.4163545380       23.0555421945
  H         8.2936274103        6.1548369081       22.9258157349
  C         8.5387951721        4.3771052617       21.9123463474
  H         5.1763982968        4.9454795194       23.8438458945
  H         4.5502799710        4.6369732992       25.3846087440
  C         3.7723881074        6.2928570755       24.4485317955
  C         5.7654134544        1.3498690915       28.5158919023
  C         8.6258785357        3.0375431355       21.8377522471
  H         8.4487293652        1.3591784446       23.0419016528
  C         8.9222419479        4.7889785682       20.6564227739
  H         3.0225169122        5.8904763839       23.8136478765
  H         4.1285086016        7.1369162430       23.8381508455
  C         3.0551586452        6.8526215446       25.7550125952
  C         5.7219257102       -0.0026573379       28.7023002446
  C         5.1254017205        2.1707631695       29.6421637605
  C         9.0061734907        2.3586452411       20.4909704348
  C         9.2699849734        3.7498261324       19.8291848249
  S         9.0734968373        6.3244527436       19.9390553545
  H         2.4668877623        7.7304612699       25.5316533207
  H         3.8358475331        7.0879794207       26.5311431147
  C         2.2218439828        5.7712070880       26.5359686455
  N         6.1194558108       -0.9392147366       27.7699790643
  C         5.4622269466       -0.6176008445       29.8832340249
  C         4.6876438437        1.5888536130       30.7851157808
  H         4.9824930356        3.1959543541       29.3630774682
  C         7.8372636720        1.6334904183       19.7427005979
  C        10.3032318489        1.5537649659       20.4884051110
  C         9.6950627443        4.1308593714       18.5962966508
  C         9.6072864932        5.5448836420       18.4162705691
  H         1.5121558230        5.4657846359       25.8011325355
  H         2.7610537240        4.8817816181       26.9267304911
  C         1.5284987760        6.2022521264       27.7921595500
  S         6.2562600751       -2.4302368715       28.4170331876
  N         5.7004938732       -2.0018947654       29.9176831302
  C         4.9386715946        0.1524638686       31.0137902776
  H         4.1353849360        2.1642734468       31.5185493425
  H         7.5727032651        0.7680644213       20.3282422774
  H         8.2841334255        1.2373047814       18.7781037167
  C         6.7231478949        2.5930406121       19.2956414135
  H        10.8016963970        1.1778068200       19.6111587556
  H        10.0594447163        0.7748114397       21.1590996384
  C        11.4681336659        2.3513278644       20.9618594221
  H        10.0259020446        3.3693059695       17.9428562713
  C         9.8987377573        6.3490460529       17.1961845864
  H         0.5565451099        6.6729881820       27.6885966926
  H         2.0885746054        6.7782301953       28.4015449290
  C         1.3990979838        5.1052186109       28.7354618684
  C         4.6909370319       -0.4772423593       32.2410974645
  H         7.2010846922        3.2360151543       18.5522643944
  H         6.3811022246        3.2683046442       20.1326845749
  C         5.6703848645        1.7844317134       18.5068623936
  H        11.3205163745        2.5886780837       22.0314117313
  H        11.6167083254        3.3554371183       20.4933360071
  C        12.8294944890        1.6543630364       21.0078122934
  C         9.8553015831        7.7549853854       17.0382037297
  C        10.3075097165        5.6319925544       15.9844562521
  H         0.7071099126        4.4386006527       28.3085708771
  H         2.3567730244        4.6553134368       28.8610206426
  C         0.9631564313        5.7575065233       30.0744953897
  H         4.6307422153       -1.5857368652       32.1662212218
  C         4.4058947015       -0.0361679025       33.5515333117
  H         5.1930574435        1.0115267689       19.1268613531
  H         6.1309716743        1.2188895315       17.6632120767
  C         4.6020308427        2.8259186280       18.0750491113
  H        12.8252162352        0.8084816707       21.6544502421
  H        12.8942332796        1.1863953043       19.9933793716
  C        13.9867210035        2.4955202580       21.5398146689
  N         9.5473115862        8.7342694293       18.0829881381
  C        10.1304356448        8.3352515492       15.8445344790
  C        10.6419240095        6.2570940731       14.7348016566
  H        10.2246875233        4.5475810584       15.9956509904
  H         0.1590331190        5.2818928873       30.5826520026
  H         1.8940669278        5.7504121013       30.6725273393
  H         0.5323190223        6.8199977345       30.1154177253
  S         4.1999460323        1.6182615293       34.0699771546
  C         4.2840795880       -1.0462676703       34.6292186351
  H         4.6679505759        3.6145969492       18.7510008977
  H         4.9495436426        3.1478381827       17.0347140654
  C         3.1231908580        2.4027828183       18.0221565213
  H        13.8442303491        3.4469487177       20.9771965522
  H        14.8976917171        2.0231977865       21.1547777988
  C        14.0368047459        2.7495087625       23.0367911218
  S         9.6033609960       10.1645834359       17.3871312660
  N        10.0113605586        9.6807725608       15.8997458758
  C        10.5878286536        7.7085266323       14.6159246704
  H        10.7563763472        5.6064415466       13.8911688177
  C         3.9979086351        0.9707511539       35.6727138770
  N         4.0487722785       -0.3803279047       35.7843062941
  O         4.4195729256       -2.2716938530       34.5186497459
  H         2.7173593786        3.0523729915       17.2123023063
  H         2.5819262624        2.6153297995       18.9652186990
  C         2.7197293798        1.0904072211       17.3491611590
  H        13.2010674481        3.5108950852       23.1532553346
  H        13.8410378800        1.9379726033       23.6908388658
  C        15.4380865690        3.2559063732       23.4100682870
  C        10.7702946979        8.4940605736       13.4444171532
  S         3.4040359636        1.7471210406       37.2353464652
  C         3.7504881854       -1.1220386587       37.0563283360
  H         2.1953487908        1.3261630669       16.4576258538
  H         3.5952611268        0.6081894842       17.0874165975
  C         1.8318991457        0.2185839833       18.3178282066
  H        15.4696991602        3.8121164806       24.3698964182
  H        15.7546320449        3.9633543321       22.6373984408
  C        16.4151979523        2.1509846296       23.3653755097
  H        10.6221933811        9.5529219534       13.6677767211
  C        11.3407717686        8.1000076251       12.2773176780
  H         2.8691005919       -0.7327942379       37.5679928262
  H         3.5439401411       -2.1585007419       36.8807145117
  C         5.0323699259       -0.9604899175       37.9798943127
  H         0.7668022976        0.3561941160       18.1534403941
  H         1.9570811667        0.3791036016       19.3983474691
  C         2.1062934322       -1.2525433511       18.0891636016
  H        16.4301921387        1.7434813300       24.3741816958
  H        16.0168950185        1.2600006667       22.8397318079
  C        17.8374511498        2.5606348684       23.0299122170
  S        11.9481945917        6.6317105476       11.8189193923
  C        11.3660459219        9.1507617950       11.2477785283
  H         4.9568641309       -1.6632838317       38.7849868581
  H         5.9247034129       -1.2606722657       37.3241339562
  H         5.2750134533       -0.0011425718       38.5519069219
  H         1.2595941093       -1.7244399235       18.7003778415
  H         3.0703122970       -1.6580102020       18.4206227904
  H         2.0816947438       -1.4898602690       16.9714789415
  H        18.4228949994        2.9002313259       23.8812728182
  H        18.0183002282        3.3774432781       22.3927569229
  H        18.4287656244        1.8478350909       22.5133457978
  C        12.4077864724        7.3823974829       10.3096243581
  N        12.0909071486        8.7048221151       10.1799256470
  O        10.9796140139       10.2880222107       11.4242579034
  S        13.1141388453        6.5453282380        8.9465952540
  C        12.2701466373        9.4567804855        8.9491187648
  H        12.3268861521       10.4449315159        9.3073271814
  H        13.1854796761        9.1068794160        8.4012313375
  C        11.0420572696        9.2311674861        8.0505352767
  H        10.2255615367        8.7195392714        8.4951170211
  H        10.4816340610       10.1723065179        7.7991223969
  H        11.3018661291        8.7228361705        7.0859669677
  H         4.7154649458        2.0519243300       12.3943083499
  C         3.9596661443        2.7975863616       12.4397441177
  H         4.4600874746        3.8008981644       12.3843878257
  C         3.0157425175        2.7553436736       11.1800864586
  C         3.2699531560        2.7220907040       13.8293887442
  C         3.7156758158        3.0348287067        9.8373781585
  H         2.1615190953        3.4002719773       11.3166506095
  H         2.5818028251        1.7293192170       11.0034382921
  H         3.0758158800        1.6782279151       14.0045539875
  H         2.3290732659        3.1239597067       13.7139352995
  H         3.8773929737        3.1025448511       14.7389022378
  C         4.5695787771        1.8538319487        9.3031542928
  H         2.9436882319        3.2636122778        9.0659689271
  H         4.2708907191        3.9738671881        9.9692505551
  C         5.2928360377        2.2194420647        7.9830760021
  H         3.8274895345        1.0716460052        9.1084154631
  H         5.2219333513        1.4071092426       10.1465583504
  C         6.6240184577        2.9472677728        8.2725635285
  H         4.6564217252        2.8348956721        7.3531777238
  H         5.4759991482        1.2614137271        7.4692473700
  C         7.6228797464        2.1013704177        9.0597352321
  H         7.1417592697        3.0899704318        7.3358676814
  H         6.3602015147        3.8728807242        8.8142048468
  C         8.9751064952        2.8964425234        9.2154732230
  H         7.6849055604        1.1546564978        8.5634244863
  H         7.3541730020        1.8520786588       10.0828027402
  C         8.6744244393        4.2284299575        9.9619526036
  C         9.4778837372        3.6151524163        7.9924007933
  C        10.0810963825        2.1466617049        9.9300117338
  C         9.0663825422        5.3452298947        9.2663889839
  C         8.0221590388        4.6018580242       11.1076186211
  C         9.4621490979        4.9723069757        7.9573271075
  C         9.8778052482        3.0771835589        6.7896493053
  H         9.8528355962        1.5415781156       10.8244931856
  H        10.3850502605        1.5429019419        9.1006600686
  C        11.3227646103        3.0731982952       10.2388677931
  S         8.8598981213        6.8186850128       10.0722710094
  C         8.1695918289        5.9332656952       11.3674489506
  H         7.6775587291        3.7941998156       11.8122812277
  C         9.8287654942        5.6468646227        6.7978203187
  H         9.7338596766        2.0022248811        6.6861029773
  C        10.1466541618        3.7013139560        5.6199474447
  H        11.0781257799        4.0406955087       10.6324869656
  H        11.7955410948        3.2074550606        9.3027341934
  C        12.4403385282        2.4934052095       11.1666985507
  C         7.7291214931        6.6138714958       12.6280577313
  C        10.2661055409        5.0888196397        5.6036949417
  H         9.8585525367        6.7423739924        6.8041839268
  C        10.5759883917        3.3698819468        4.3257585239
  H        13.3315763663        3.1626647303       11.1684694024
  H        12.8582392345        1.5371696378       10.9006692995
  C        11.7701769518        2.3465777980       12.6167388280
  C         7.7353687603        7.9849972778       12.8302781274
  C         7.2736817023        5.7639107860       13.7196813760
  C        10.6794443863        5.8741080535        4.3913994809
  C        10.8013112355        4.5267899400        3.5708539842
  S        10.7633952428        1.9840709244        3.4126993470
  H        11.3363240604        3.2874672437       12.8442052140
  H        10.9175357083        1.6921455128       12.4853837390
  C        12.7581092441        2.0111298343       13.7345018595
  N         7.9617276030        8.9226706073       11.8576347166
  C         7.3113548873        8.5715847898       14.0310388785
  C         6.9237481989        6.2539985690       14.9330494045
  H         7.0659650497        4.7035022198       13.5056639974
  C        11.9763927068        6.6668631643        4.5287308523
  C         9.6127467340        6.6850306022        3.5845222514
  C        11.0997303141        4.2510880380        2.2024974202
  C        11.2371768263        2.9122738593        1.9699711655
  H        13.7069838011        2.5651988211       13.7264516753
  H        12.9658313428        0.9755909973       13.5644551600
  C        12.2160066419        2.2443026429       15.1507415974
  S         7.8312239571       10.4218359971       12.6071573064
  N         7.2283050778        9.9192268806       13.9982404352
  C         6.9550384748        7.7498676864       15.1419856883
  H         6.4719284111        5.5200673264       15.5198647366
  H        11.7782653750        7.2991192645        5.3825562235
  H        12.2155170980        7.2459628860        3.7118043340
  C        13.1162678595        5.7925576253        4.9322398280
  H         9.1894001470        7.5658520065        4.1687837539
  H         9.9801580872        7.0428085065        2.6762238118
  C         8.3619642959        5.8799345451        3.2301024454
  H        11.1757302805        5.1000057316        1.5888844157
  C        11.6718485650        2.2097408244        0.7164185754
  H        11.8361647997        3.2903576097       15.2060893840
  H        11.3737974854        1.5872510108       15.2797168204
  C        13.2697644527        2.0090500055       16.2189287528
  C         6.7267817949        8.3314883288       16.3905165978
  H        12.8426266507        5.2191781821        5.7738221612
  H        13.3467333657        5.0801065024        4.1341536423
  C        14.2779921141        6.7412520970        5.0942228124
  H         7.9128882593        5.3157338628        4.1077104412
  H         8.5298067972        5.0880520397        2.4983654649
  C         7.4124279523        6.7111728232        2.4480127538
  C        11.7118400095        0.7918022423        0.5125860332
  C        12.0101499833        2.9933183056       -0.4985574094
  H        14.1974171378        2.3604748609       15.8258363270
  H        13.4662215573        0.9454501505       16.4481244863
  C        12.9666763373        2.7270831807       17.5679825919
  H         6.7093324039        9.4377799723       16.4159950856
  C         6.3949328321        8.0137609088       17.7367289099
  H        14.1678835184        7.4863099564        5.9298169993
  H        14.3012923774        7.4110704941        4.1456754993
  C        15.6396589129        6.0327110619        5.1886218124
  H         7.3976424040        7.7353055066        2.9452193596
  H         7.6503000967        6.9399232189        1.3783987715
  C         6.0058440545        6.2540295809        2.3062130777
  N        11.2744616521       -0.1075975608        1.4540701234
  C        11.9512576230        0.2007195781       -0.6718554945
  C        12.2582703035        2.3920037818       -1.7657779848
  H        12.1577414243        4.0838627586       -0.4262974261
  H        13.6016884322        2.4963312584       18.3652878175
  H        11.8920123068        2.5944262472       17.7936512063
  H        13.0489066321        3.8817412804       17.4276831065
  S         6.0389076112        6.4328665600       18.3021063249
  C         6.1743301584        9.0683916310       18.7564434874
  H        15.7723666324        5.2874108840        4.3657945904
  H        16.4382582857        6.7890498532        4.9076195261
  C        15.9750518208        5.4232391814        6.5523964803
  H         5.6831737190        5.8352384170        3.2199691010
  H         5.9183832927        5.4497856483        1.6396499272
  C         5.1493473893        7.3996428759        1.7235845024
  S        11.3768408668       -1.5974661255        0.8636189630
  N        11.8642242794       -1.1556759490       -0.6480472081
  C        12.2831838181        0.8800811439       -1.8506332859
  H        12.3719126773        2.9629651410       -2.6453403997
  C         5.8843337424        7.0922891937       19.8842606074
  N         5.8845258485        8.4681028441       19.9218519740
  O         6.2882391336       10.2566826802       18.6084012901
  H        15.7134124079        5.9760263097        7.4482695728
  H        15.6058064591        4.4094733285        6.6396162767
  C        17.4314086789        5.2063173482        6.6262400175
  H         5.5412903061        8.0058670021        0.8560284890
  H         4.3808961936        6.8541700944        1.0969228597
  C         4.4872296016        8.4061176783        2.7414297334
  C        12.5938423163        0.1612974115       -3.0368482518
  S         5.6338802426        6.2188118684       21.4021052722
  C         5.9771349358        9.2660821548       21.1248284054
  H        17.5283311548        4.3091106127        7.2251665308
  H        17.8897149388        4.7526805433        5.7363773256
  C        18.4525828000        6.3433811697        7.0251838544
  H         5.2173026043        9.1400855230        2.9278817206
  H         4.3482673641        8.0405096733        3.8082561594
  C         3.2678133833        8.9703284842        2.0173016097
  H        12.4085203259       -0.9584317073       -3.0308678213
  C        13.0933914446        0.5029623877       -4.2562012324
  H         5.1956653172        8.9238134743       21.8636490529
  H         5.8645208747       10.2448482756       20.9037545173
  C         7.3241248660        9.0788458347       21.7316662330
  H        18.0697435431        6.7673502939        7.9561869461
  H        18.4173315690        7.1090912969        6.2521994752
  C        19.7981651893        5.8149803947        7.2465199974
  H         2.4846301923        8.3183618223        1.8811981804
  H         2.9006559382        9.6928126469        2.7613618195
  C         3.4533105195        9.7693919067        0.7644120822
  S        13.8062283897        2.0191137196       -4.6819722937
  C        13.3432381656       -0.6051534807       -5.1695614625
  H         7.1915541587        8.6357815002       22.7429170758
  H         7.7719976601       10.0295750957       21.8726752316
  H         7.9872759165        8.4270832507       21.1744153644
  H        20.3797600487        6.5831784248        6.7926522921
  H        20.1057345707        5.7640618116        8.2407910220
  H        19.8352806742        4.8952013952        6.6192195357
  H         3.1661250876       10.8643191967        0.9186574036
  H         4.4750228771        9.6779577404        0.3819775495
  H         2.8594782704        9.3642387455       -0.0647064883
  C        14.2032291372        1.3176963390       -6.1928354894
  N        13.9290152005       -0.0094650280       -6.2777548408
  O        13.0463733429       -1.7901768494       -5.0506408969
  S        15.0002191153        2.1453377026       -7.5518107518
  C        14.0270761565       -0.7822372194       -7.4711217316
  H        14.2502450394       -1.7378227246       -7.1219680901
  H        14.7806026638       -0.3765020056       -8.1189764010
  C        12.6572331539       -0.7840965240       -8.1971580141
  H        11.8033430742       -1.0938384208       -7.6100022571
  H        12.8262114177       -1.5131705337       -8.9197996787
  H        12.3289696855        0.1510491947       -8.7397936699
