352
 i =     9200, time =     4600.000, E =       147.2947984314
  H        10.5134441168        4.2114968632       31.6371807503
  C        10.4564561857        5.2033543172       32.0982237444
  H         9.3860083440        5.6161783822       32.1059449356
  C        10.9406051005        6.0707811296       31.0210614382
  C        11.1606223303        5.5326059402       33.3349159560
  C        10.5822134339        5.3591778879       29.6727149150
  H        10.7114223326        7.1316417428       31.0515999678
  H        11.9857927278        6.1790108554       31.2088736441
  H        11.2393540041        6.5862683509       33.6028159040
  H        10.5446366383        5.0402741626       34.0987999085
  H        12.1227765898        5.1159267627       33.2467926429
  C        10.9302559374        6.2300251016       28.4742691353
  H         9.4856839835        5.1566496430       29.5959580694
  H        11.0279059771        4.3927955662       29.5233631027
  C        11.0602567562        5.6303915329       27.1146112608
  H        10.1295508657        6.9903054033       28.3778272838
  H        11.9034769980        6.6434467911       28.7396854938
  C         9.8299081658        4.8671028914       26.6575467857
  H        11.9204132506        4.9393700898       27.1118520549
  H        11.4039471018        6.4659236827       26.4860658136
  C         8.6973580339        5.7236418971       26.3591467164
  H        10.1348967994        4.2900850136       25.7420319675
  H         9.4941232970        4.1465414953       27.4666872096
  C         7.6084608371        5.0909125804       25.5368161207
  H         8.2065667813        5.9853549636       27.3040711454
  H         9.0413266379        6.6009944966       25.8055607101
  C         7.2276138069        3.7286641307       26.1709946581
  C         7.8067957972        4.3153361998       24.2456857367
  C         6.2962560398        5.9764410868       25.3744353413
  C         7.2994866371        2.5634088907       25.3377648462
  C         6.9575199764        3.2825201048       27.4812434947
  C         7.6507195275        2.9373137906       24.1029455778
  C         8.3388205943        4.8740612466       23.0240273207
  H         6.4995269124        6.6597459657       24.5490673134
  H         6.1990567113        6.6028254845       26.2384460713
  C         5.0694784517        5.2559086047       24.8080039768
  S         6.9096392519        1.1359206655       26.1268092060
  C         6.6684340535        1.9739750533       27.5837660123
  H         6.9067396251        3.9413176131       28.3201383323
  C         7.9194363805        2.3355714450       22.8978680141
  H         8.3357633829        6.0055230723       22.9218833154
  C         8.6961992055        4.2179329844       21.9110859844
  H         5.1430744127        4.7658732887       23.8513689664
  H         4.8820878968        4.5426612357       25.5632917016
  C         3.8642006096        6.0515623528       24.7309372641
  C         5.9633218762        1.4091897675       28.7549401587
  C         8.4564209156        2.9220637796       21.7901235950
  H         7.8618610122        1.3283433387       22.9272401550
  C         8.9516492492        4.6528784517       20.6487465346
  H         3.1075960302        5.5347098977       24.0652390071
  H         4.1196693882        6.8803493122       24.2019885412
  C         3.2758452260        6.4897706196       26.0645291120
  C         5.8383023497       -0.0004108561       29.0582554104
  C         5.6549241678        2.2929799948       29.9404196306
  C         8.7683638688        2.2258354458       20.4870148192
  C         8.9952745925        3.6072968555       19.7564477819
  S         9.2985990046        6.1791155112       19.9470938530
  H         2.8739385118        7.5457565922       25.8548314407
  H         4.0681460003        6.4091199402       26.8056897245
  C         2.2224076180        5.5903262923       26.7168697733
  N         6.0809696180       -0.9549534118       28.1365914551
  C         5.4941435799       -0.5191258357       30.2333786825
  C         5.3184818218        1.7217088211       31.1468029669
  H         5.9192391439        3.3187751094       29.9934709225
  C         7.6565065470        1.5926155943       19.5741034713
  C        10.0305403348        1.4488916181       20.4151558319
  C         9.2708817316        4.0508433292       18.5100640662
  C         9.4676245107        5.4111110993       18.4542550602
  H         1.5233324875        5.2314372874       25.8750299926
  H         2.6872876908        4.6870871485       27.0034007376
  C         1.6100016263        6.2390391926       27.9379179898
  S         5.8214171042       -2.4037395915       28.7807217969
  N         5.4180666475       -1.9590388367       30.2685977159
  C         5.2277113773        0.1925580880       31.3933205076
  H         5.2678352291        2.4017512168       31.9480428954
  H         7.4067283192        0.6154662406       19.9842703502
  H         8.1402164869        1.4806838301       18.6741372252
  C         6.3914094178        2.4178028870       19.3488746083
  H        10.2906540269        1.1841885052       19.4993067743
  H         9.7461041456        0.5714305261       20.9498294873
  C        11.2210866027        2.2151141586       20.9386351004
  H         9.4550622405        3.3283774651       17.6943813561
  C         9.7036355095        6.1672918755       17.2140455288
  H         0.8667887086        6.9188770832       27.5282619875
  H         2.3701803377        6.7780135582       28.3417164860
  C         0.8261372428        5.2237233939       28.6325688384
  C         4.9908462983       -0.4775642274       32.5757485911
  H         6.6150874784        3.0954342545       18.5723083061
  H         6.2527378515        3.0168496732       20.2629534779
  C         5.1166500310        1.6406440262       19.0417715521
  H        11.0167403568        2.5555665374       21.9276793235
  H        11.4818004739        3.0548525399       20.3661946564
  C        12.5334763833        1.2783820792       20.9593110343
  C         9.7282004859        7.5669049509       17.0296443601
  C        10.0327781150        5.4117626600       15.9847067397
  H        -0.1545250077        5.2055229444       28.1802085550
  H         1.3537371122        4.2491016594       28.4173315040
  C         0.9770000984        5.4519890860       30.2030209123
  H         4.9307312431       -1.5952678765       32.5591723747
  C         4.7338961741       -0.0136305500       33.8639113450
  H         4.7303163461        1.2062082976       19.9719838132
  H         5.3742395716        0.7457561992       18.4544177204
  C         3.9969344497        2.4532965564       18.4512980216
  H        12.3721822612        0.4465040936       21.6502398672
  H        12.5199501291        0.9670959806       19.9109234784
  C        13.9548777968        1.9575502556       21.0993831210
  N         9.5946114724        8.5026500289       18.1094126629
  C        10.0833220815        8.2688735939       15.9007018707
  C        10.3340548340        6.0707459224       14.8039216492
  H        10.1106368962        4.3133790255       15.9927360620
  H         0.4789750347        4.5495671799       30.7030728006
  H         1.9598177425        5.3412367050       30.7238886183
  H         0.5019731392        6.3162369355       30.7452286985
  S         4.5929810810        1.6088863949       34.3397456475
  C         4.6444633453       -1.0128176411       34.9689006128
  H         3.8025332846        3.3982506360       19.1635210653
  H         4.3202252270        2.9272929894       17.5810155000
  C         2.7776610501        1.5788188574       18.0784379093
  H        14.0065934289        2.7149689460       20.3511584843
  H        14.5894067835        1.1140128959       20.7907306174
  C        14.1256857858        2.5420675147       22.5287727597
  S         9.5964161214        9.9981807192       17.5090365216
  N        10.0137169599        9.6663277048       15.9741292538
  C        10.3348015729        7.5614205340       14.6912484915
  H        10.5011485043        5.4439335767       14.0299203478
  C         4.2288412072        1.0130479188       36.0229491216
  N         4.2165151257       -0.3808788747       36.0924164676
  O         4.8573745615       -2.2511458494       34.8633805358
  H         1.8696000153        2.1133074641       17.9320119216
  H         2.5630264559        0.7893264700       18.7865341574
  C         3.0517505116        0.7265168900       16.8681189441
  H        13.3197619185        3.2630225726       22.5288179359
  H        13.9350215081        1.9611385391       23.3870441794
  C        15.5652433862        3.0563940208       22.7226589565
  C        10.7979550042        8.3037599035       13.5681099289
  S         3.6761066198        1.9927607510       37.3284485425
  C         4.1587146064       -1.1390705201       37.3241520741
  H         2.3874667567        0.8433092138       16.0699151174
  H         4.1052749627        0.8654530402       16.5278511655
  C         2.8793078071       -0.7586265273       17.3295676049
  H        15.5919660235        3.6526971140       23.6538366753
  H        15.8588547472        3.6494124510       21.8644029674
  C        16.5365743560        1.8702970363       22.8588457517
  H        10.6342097038        9.2873229803       13.8067719271
  C        11.2151740507        8.0194538056       12.3000064432
  H         3.2947689459       -0.6672202844       37.9122121609
  H         3.9989757481       -2.1629680928       37.1779375184
  C         5.3877286773       -1.1478860880       38.1670560217
  H         3.5186568828       -0.8520346699       18.1512819511
  H         3.2624794507       -1.5632063061       16.6978472305
  C         1.4355195650       -1.0895479955       17.5275585125
  H        16.2951358300        1.3379224181       23.7671582632
  H        16.4480741305        1.1440408347       22.0921367588
  C        17.9458064647        2.3852444909       22.8822415530
  S        11.4826384359        6.4137201142       11.7219742919
  C        11.3448858665        9.0331909791       11.2647916046
  H         6.1325779663       -0.5556844713       37.7083664371
  H         5.1347769477       -0.7772167459       39.1217566282
  H         5.7198806609       -2.2140583737       38.3311246714
  H         1.2857176322       -2.1620301859       17.7529347000
  H         0.8397703750       -0.7573960220       16.6195807637
  H         0.9125451006       -0.4828711260       18.2825485103
  H        18.4207076642        2.4414532046       23.8867534881
  H        18.0907743026        3.4213036695       22.3985570601
  H        18.5743301537        1.7322785609       22.2202159251
  C        11.8983000870        7.1478473655       10.1626201687
  N        11.7842084920        8.4726865094       10.1449746284
  O        11.0975258356       10.2469157273       11.5602068330
  S        12.5586887088        6.4192496627        8.7345550962
  C        11.9908681538        9.2119335399        8.9375491974
  H        11.7983711798       10.1952914015        9.1998081040
  H        12.9383387040        9.1510553425        8.6195730747
  C        10.7887365466        8.9256274320        7.9529005599
  H        10.6321283913        9.8472383562        7.3320928819
  H        10.9384184974        8.1585612580        7.2367322766
  H         9.9249098674        8.6579009827        8.6106832308
  H         3.9068294596        1.6572924953       12.4219441211
  C         3.4442521692        2.6591509125       12.4334476850
  H         4.2639371234        3.3698008897       12.5220395166
  C         2.8565750280        2.7014142565       11.0252774907
  C         2.3279446041        2.8289612714       13.5410477888
  C         3.9299070058        2.7831788488        9.9470561844
  H         2.2884832786        3.6000682578       10.7580669028
  H         2.2480616964        1.8443994441       10.8911908113
  H         1.6389142399        2.0065918307       13.6106909674
  H         1.7572002702        3.6847148988       13.3374831571
  H         2.7180979899        3.0636571022       14.4549092897
  C         4.6632994169        1.4972662847        9.7853164915
  H         3.4562225666        3.0919654391        9.0030624676
  H         4.6549390088        3.6284230892       10.1487201465
  C         5.4072514586        1.3079482424        8.4426715785
  H         3.9803382750        0.6180767528        9.9014306049
  H         5.3195627991        1.3554821538       10.6991548686
  C         6.7226210478        2.1410150377        8.3038363321
  H         4.7548089567        1.5091426057        7.5373157609
  H         5.6367694051        0.2484860648        8.4009720010
  C         7.7816229308        1.6602360943        9.2930056141
  H         7.0266392068        1.9751420687        7.3425427728
  H         6.5164668605        3.1520195197        8.4477111616
  C         8.9807613334        2.7575329365        9.4085392299
  H         8.2316094997        0.6900165662        9.0421529979
  H         7.3458259610        1.4588311017       10.2357042665
  C         8.3947354668        4.0503949627       10.1063405029
  C         9.2643094194        3.4713852883        8.1434954967
  C        10.2137404330        2.2054921862       10.0594485854
  C         8.7010652200        5.1578986215        9.3051645746
  C         7.7580258160        4.4184513393       11.2810731104
  C         9.2516105546        4.7740959767        8.0636561677
  C         9.7008696834        2.8606266053        6.9890730942
  H         9.9704679540        1.8067702517       11.0212895774
  H        10.5476798996        1.3826579778        9.3807013886
  C        11.3644215296        3.2005516680       10.0996950741
  S         8.2340675679        6.5991413517       10.1092769220
  C         7.4936068432        5.7416918797       11.3748841166
  H         7.3682118548        3.6315334980       11.9196320657
  C         9.7667910960        5.4154753032        6.9644117662
  H         9.8978056090        1.7706452083        7.1195321781
  C        10.1052961895        3.4840328198        5.8629892477
  H        10.9687957649        4.0767490739       10.3597540550
  H        11.7563080014        3.2677836642        9.0617293044
  C        12.4254838204        2.6649171062       11.1406264625
  C         6.9506600723        6.4955071683       12.5661022022
  C        10.2443846772        4.8195814521        5.8040104420
  H         9.7005825374        6.5158845597        7.0012614920
  C        10.6324452415        3.2133715629        4.5982314805
  H        13.3357520142        3.2072810711       10.8057510851
  H        12.7826287952        1.6000413527       10.9392685786
  C        12.0053037089        3.0730943464       12.5719506802
  C         7.2034546994        7.8342667641       13.0116409410
  C         6.4125171638        5.6588167939       13.6909953615
  C        10.7001827367        5.5251319187        4.6592187689
  C        10.8677056923        4.2949404647        3.8494109087
  S        10.9369405031        1.6475373013        3.7529716820
  H        12.4600855635        4.0449827905       12.8086021654
  H        10.9060443336        3.1624716062       12.5769944427
  C        12.2719947693        2.1018995107       13.6423802713
  N         7.7968332881        8.7439159770       12.1016010077
  C         6.9439091193        8.3425294456       14.2069419966
  C         6.2761858473        6.1344917087       14.9848909238
  H         6.2116409637        4.6156440177       13.5659836141
  C        11.9882690939        6.3386533529        4.7876951327
  C         9.6723091546        6.3669356596        3.8557966758
  C        11.3889665666        3.8678962239        2.5796183588
  C        11.4320440667        2.4560454773        2.4103983407
  H        13.2804363314        1.7958031167       13.4639001795
  H        11.5356066504        1.2998247291       13.4966521468
  C        12.0679430034        2.5861477341       15.0530807125
  S         7.7396080828       10.2042808691       12.7601789714
  N         7.0724990462        9.7352245268       14.1954268943
  C         6.5480901266        7.5341357224       15.3111106616
  H         5.8286632134        5.4503645793       15.6906483673
  H        12.0087620583        6.7542403604        5.7531825909
  H        12.0842968467        7.2252559039        4.0618387195
  C        13.2990200812        5.5170015509        4.6775495564
  H         9.3799454551        7.1823058108        4.3696433716
  H        10.1468120474        6.7972963094        2.9183967186
  C         8.3802274865        5.6950728695        3.4056194011
  H        11.4953404270        4.5749468400        1.7377542398
  C        11.7557826347        1.6835823389        1.1229903663
  H        11.8836583606        3.6315495971       15.0092190146
  H        11.1612338086        2.0603410195       15.3945923648
  C        13.1664161781        2.3700025765       16.0801469632
  C         6.3701047517        8.2324211161       16.5289739995
  H        13.2539573839        4.6366800989        5.3094535079
  H        13.4411583525        5.0808486380        3.7213793727
  C        14.5758982749        6.4237763702        4.9128488331
  H         8.0082661143        5.2408963345        4.2794642728
  H         8.6422836627        4.9030619281        2.6797269596
  C         7.3349324314        6.6674688145        2.9420447595
  C        11.6735263126        0.2468658303        0.9075080408
  C        12.2700118681        2.5033669300       -0.0453289547
  H        14.1307351507        2.7987212197       15.7896920207
  H        13.3668833322        1.3404424806       16.1864273209
  C        12.6563135088        2.8915267069       17.4297267678
  H         6.1609159007        9.3157020481       16.4817377439
  C         6.2376862705        7.8017236288       17.8198331155
  H        14.4531869788        7.1207330910        5.6880817985
  H        14.8644298168        6.8735093830        3.9650356063
  C        15.7622773221        5.5284676839        5.1460023816
  H         6.9668498244        7.3477476971        3.7335519070
  H         7.6316382482        7.3581224261        2.1744771082
  C         6.1441258925        5.8498781824        2.4104408936
  N        11.4278859106       -0.6542557366        1.8599069637
  C        12.0522150244       -0.3085335771       -0.3002772980
  C        12.4846081635        1.9760232159       -1.2809423113
  H        12.0216868921        3.5404671124        0.0210437002
  H        12.2746129638        3.9764565942       17.4159863856
  H        13.4694719094        2.9462574214       18.1152870335
  H        11.9499113137        2.3224938422       17.8550876946
  S         6.1070019156        6.1833003049       18.3952331153
  C         6.2362351084        8.8338703577       18.8784624356
  H        15.5299088273        4.4544760736        4.8391346458
  H        16.4880328997        5.7306876924        4.3614333744
  C        16.3869390667        5.5546663511        6.5580759100
  H         5.6996738377        5.4109638461        3.2512422617
  H         6.5678172806        5.0857435341        1.7438951644
  C         5.1365855894        6.5213553985        1.5703004929
  S        11.4742253679       -2.1516734413        1.2169621191
  N        11.8692092952       -1.7016608355       -0.3111883692
  C        12.4107628593        0.4230540701       -1.4231414812
  H        12.4801933648        2.6086822945       -2.1156092542
  C         5.6306504060        6.9457565435       19.8724815213
  N         5.8044024863        8.2616427094       19.9601743324
  O         6.4182076915       10.0551317505       18.5877760540
  H        16.3996615372        6.5421725764        6.8505757386
  H        15.8409291864        5.0895650470        7.4032516542
  C        17.7899525834        5.0037914537        6.6134663216
  H         5.2952918944        6.1142888010        0.5359944736
  H         4.1812805559        6.0046724202        1.9406350562
  C         5.1999893457        8.0513544513        1.7103187378
  C        12.5560843056       -0.2784931003       -2.6526133453
  S         5.3673253088        5.9914006740       21.3674142315
  C         5.7695666334        9.0537525775       21.2166747947
  H        17.9997874022        4.8825697518        7.6910386834
  H        17.7114422356        4.0206666881        6.0929239996
  C        18.7272924856        5.8612481633        5.7599108948
  H         5.9176166126        8.5707536978        1.1152487412
  H         5.1732886888        8.4412014717        2.7494625751
  C         3.8849226530        8.7486508921        1.1385552347
  H        12.0486548527       -1.2007116693       -2.8000392537
  C        13.1169242486        0.0585238242       -3.8247615636
  H         5.1732082165        8.6562656934       22.0271125606
  H         5.2016760476        9.9955963340       21.0558294656
  C         7.2518412171        9.4439977599       21.6018573571
  H        18.6302763594        6.9721095409        5.9231543192
  H        18.5951775165        5.6339212630        4.7325209432
  C        20.1918494907        5.6544553923        6.2170951250
  H         3.8218799758        8.6678412215        0.0710737332
  H         3.0458874490        8.2231757897        1.5357161345
  C         4.0213604715       10.2203758710        1.4277098531
  S        13.7734321445        1.6032943465       -4.2829096001
  C        13.2322199866       -0.9874647926       -4.8574118028
  H         7.8874270536       10.1401357245       21.0376418402
  H         7.8568112024        8.4950720855       21.6209736642
  H         7.2143055010        9.8486085429       22.5340983563
  H        20.7002221930        6.5750656391        6.1911316305
  H        20.0655006552        5.3698202352        7.2020041853
  H        20.7468554853        4.9465505694        5.6020309292
  H         3.4390929925       10.8811724899        0.7964422797
  H         3.6612002628       10.2832816402        2.4896161658
  H         5.0610687354       10.6333635979        1.3974423409
  C        13.9736116740        0.9339794739       -5.9203765685
  N        13.8312991489       -0.4165835849       -5.9666757671
  O        12.8459815664       -2.1905520605       -4.6753224146
  S        14.6255745173        1.7617672883       -7.2743013487
  C        14.1155748189       -1.2720297690       -7.1483516355
  H        14.3121001271       -2.2638448345       -6.7748511127
  H        15.0661680457       -0.9228126161       -7.6070986285
  C        12.9423771407       -1.2537472404       -8.0343053983
  H        13.2788067313       -0.8566127505       -9.0266510803
  H        12.0878599276       -0.5937610617       -7.7473945322
  H        12.6227899778       -2.2313533056       -8.3114195551
