352
 i =    46300, time =    23150.000, E =        98.0718398034
  H         9.9308694576        4.7110783237       31.4501924656
  C        10.0430573229        5.7224376582       31.8840410243
  H         9.0228595430        6.0515382311       32.0825816770
  C        10.8785137913        6.6740060937       30.9875526290
  C        10.7838602631        5.6029137122       33.2807219932
  C        11.4484285983        6.1256658573       29.6379512092
  H        10.3079147881        7.5833769069       30.7612275482
  H        11.6813905049        7.1480232357       31.5204133392
  H        10.6030323096        4.6400522561       33.7823299684
  H        11.8357918582        5.7690991220       33.1090838426
  H        10.3999643654        6.3774691582       33.9279881349
  C        10.3381875588        5.8642970783       28.6662428258
  H        12.0856045477        5.2667013584       29.9281569518
  H        12.1530649687        6.9058745139       29.2162559240
  C        10.8549555280        5.5002694692       27.2548389456
  H         9.7306232547        5.0579539369       29.0042111550
  H         9.6396406157        6.5985387277       28.6552135006
  C         9.7795014750        4.9569006385       26.2269562291
  H        11.6399606381        4.7138957357       27.4002821922
  H        11.4904843051        6.2771816826       26.8507525366
  C         8.5562095758        5.8966674573       26.0035482145
  H        10.2540344918        4.7759936697       25.2702356029
  H         9.4643545874        4.0090014915       26.5286462707
  C         7.3912264959        5.2400679466       25.3274020290
  H         8.3395548685        6.4790817141       26.8630042091
  H         8.9778584926        6.5688208260       25.2671841533
  C         7.0527731612        3.9509699553       26.0087929542
  C         7.6675354106        4.5492511182       24.0380999549
  C         6.2034693850        6.2235274501       25.2712237920
  C         6.9984519205        2.8696135621       25.1962135594
  C         6.6584007116        3.6316396685       27.2876987583
  C         7.4595263651        3.2092908796       23.9387029507
  C         8.0774098438        5.0783045934       22.8138319917
  H         6.6408695859        7.0534979227       24.7513808311
  H         6.1591632090        6.6388472248       26.2614744199
  C         4.8692308739        5.6247976366       24.5768510237
  S         6.5080125357        1.4366377205       26.0034766078
  C         6.2918210286        2.3273134704       27.4401369974
  H         6.5633877433        4.3834880889       28.0889683110
  C         7.7542446636        2.5403786648       22.7586047379
  H         8.3417128475        6.1449560445       22.7393845920
  C         8.4188764697        4.4264129409       21.6539690961
  H         5.0097328672        5.3947976115       23.5421361747
  H         4.5011178467        4.6559139070       25.0324819588
  C         3.5556827114        6.3848764854       24.6997193303
  C         5.8001413085        1.6033855677       28.6321313535
  C         8.2553526722        3.0570116663       21.6055823668
  H         7.5014433519        1.5235072939       22.8183831202
  C         8.9376767784        4.8591488613       20.4893027330
  H         2.7768309693        5.9690996498       24.0628643159
  H         3.6671421241        7.3493556974       24.2296844933
  C         3.0872169176        6.6249437049       26.1184977958
  C         5.7532941679        0.2177864284       28.8642221999
  C         5.2839720516        2.4092657347       29.7568067835
  C         8.8426200241        2.3748760899       20.3909240694
  C         9.2624279737        3.7670761627       19.7137738507
  S         9.3029663313        6.4205648381       19.8735422341
  H         2.4570284597        7.5057368490       26.1216305617
  H         3.8857964146        6.7489002545       26.8956746322
  C         2.1774363645        5.4147229353       26.5772976470
  N         5.9885246138       -0.7555461826       27.9103379551
  C         5.5096871590       -0.3208886200       30.1081365587
  C         4.8356870578        1.8780183117       30.9550308763
  H         5.0308995392        3.4003247375       29.6277381115
  C         7.8089540982        1.5923197900       19.5314446242
  C        10.2268132536        1.6080109189       20.5967671154
  C         9.8279706573        4.1865110602       18.5152391624
  C         9.8745717010        5.5750878322       18.4894699763
  H         1.4666872576        5.3354623420       25.8483205095
  H         2.7474204802        4.5166939063       26.3949467620
  C         1.5356298571        5.5351103410       27.9766546138
  S         6.3042922626       -2.1617745381       28.6956900389
  N         5.7025745453       -1.7142400023       30.1482371912
  C         5.0935049261        0.4388262393       31.2171222778
  H         4.4667693557        2.6658714203       31.6365964980
  H         7.3810653714        0.8309231454       20.1371192197
  H         8.3554795181        1.0193681256       18.7267705641
  C         6.6102580316        2.3421979406       18.9247126273
  H        10.5883242070        1.3029299171       19.6086188906
  H        10.1027739803        0.7760680533       21.3320484960
  C        11.3248405367        2.4994568745       21.2218041270
  H        10.0355700784        3.3797674012       17.8076428215
  C        10.2881683152        6.3451914912       17.2710992028
  H         0.8431620750        4.6938769520       28.0764657300
  H         0.8987996192        6.4246940540       27.8938671817
  C         2.5960045542        5.6618128580       29.0863170352
  C         4.7469329926       -0.2587279970       32.4001808859
  H         7.0580680113        3.1991141693       18.3231313003
  H         6.0605844343        2.7386758946       19.8413653160
  C         5.7064478714        1.6143904736       17.9717023701
  H        11.0084810692        2.8661305002       22.1802299379
  H        11.5158521421        3.3811396499       20.6908680402
  C        12.6151939224        1.7494861808       21.4783151683
  C        10.2774000414        7.7832738326       17.0990780801
  C        10.5841968852        5.6245090018       16.0254870084
  H         3.3951155678        4.8668942778       29.0887791951
  H         3.0745719203        6.6171572133       29.0712435104
  C         1.8428446043        5.5597848318       30.4758661963
  H         4.9838246071       -1.2912199298       32.3701239034
  C         4.4046385827        0.1866640196       33.6485233721
  H         5.6945509298        0.5443945536       18.2424716790
  H         6.1814393844        1.5653630727       17.0086838661
  C         4.2967816517        2.1644408852       17.8149155788
  H        12.4556473760        0.8742188408       22.0284586671
  H        12.8824233557        1.3761139380       20.4966268932
  C        13.7187686900        2.6559105905       22.1502231602
  N         9.9340130928        8.6162271279       18.1587379072
  C        10.4878520769        8.4834867827       15.9334712137
  C        10.9621858071        6.3083038135       14.9154604114
  H        10.5986626500        4.5357743349       15.9888663773
  H         2.6058123055        5.1777300398       31.1433862118
  H         1.4589437119        6.4963647441       30.8047743637
  H         0.9949334723        4.9054414202       30.3120258192
  S         4.2395060132        1.8713196191       34.0893346858
  C         4.4179716438       -0.8283039845       34.7517297842
  H         4.0744496043        3.1259239463       18.4079536418
  H         3.9791573646        2.3591333605       16.7683691340
  C         3.2045336504        1.1836129760       18.2105741971
  H        13.2841315647        3.2928534491       22.9127253397
  H        14.0285204974        3.2848601903       21.3396029691
  C        15.0044911803        1.9491507906       22.5327757607
  S         9.9136416932       10.1693745166       17.6371335207
  N        10.4805923065        9.9076103239       16.0907729436
  C        10.9713962993        7.8191468302       14.7895566016
  H        11.2188291619        5.7066905176       14.0473867774
  C         4.0582308308        1.1970614896       35.7043235680
  N         4.1034560109       -0.1894453009       35.8337992571
  O         4.4103017547       -2.0352073814       34.6174613083
  H         2.2507705535        1.6839796151       18.4220763367
  H         3.5013320138        0.7897244456       19.2401432083
  C         2.9320129113       -0.0658992706       17.3822859215
  H        14.7427871670        1.2330273069       23.3112019832
  H        15.4896932773        1.5163210381       21.6415257175
  C        15.9289019188        2.9951649553       23.1057957235
  C        11.3193756400        8.6465467769       13.6486760671
  S         3.8439353594        2.0902213058       37.1491442063
  C         4.0717667863       -0.9659328591       37.0920794574
  H         2.4119168519        0.3090869513       16.4179145240
  H         3.8318006473       -0.6342962997       17.1683563234
  C         2.0948189446       -0.9747405769       18.2322063005
  H        15.8466308392        2.9675479141       24.2131300498
  H        15.6790322260        4.0006786607       22.7797970141
  C        17.4361244075        2.7318342363       22.7852725866
  H        11.2091091598        9.7492032556       13.8254061449
  C        11.6744998658        8.3427246920       12.3845557985
  H         3.4661873143       -0.3703332301       37.8519259319
  H         3.6493414190       -1.9301235424       36.8733319189
  C         5.4634278438       -1.0735715171       37.6473604317
  H         1.2193532298       -0.4409951793       18.6616928832
  H         2.7804075843       -1.4559694248       18.9630095355
  C         1.4035347984       -2.0755915717       17.4829996239
  H        17.5015694981        2.1531649671       21.8049204520
  H        17.8047181087        3.7029024684       22.6175671223
  C        18.0769496615        1.9356989980       23.9238731048
  S        12.2019879970        6.7769117522       11.8214046116
  C        11.6854640921        9.3826289103       11.3484676585
  H         6.2758576701       -1.3868166434       37.0210226965
  H         5.5610008503       -0.0251692269       37.9822509008
  H         5.5591802576       -1.7460921113       38.4722095481
  H         2.0912005757       -2.7110706778       16.9196881827
  H         0.6436117342       -1.6970181804       16.8187479980
  H         0.8916468975       -2.7730420122       18.2207243750
  H        18.4243414071        2.4510186452       24.7631216683
  H        18.9298593782        1.2235042908       23.7194693161
  H        17.2807874723        1.3430486968       24.3684685106
  C        12.4732439663        7.5475526303       10.2641439450
  N        12.3539475086        8.8845465928       10.2820391588
  O        11.3486616627       10.5365653534       11.4018266262
  S        13.2317135488        6.7239417546        8.8742480818
  C        12.3676100647        9.7092976412        9.0649533900
  H        12.4114707084       10.7322140138        9.3056714397
  H        13.2924364175        9.5772794801        8.4499677912
  C        11.0432220967        9.4988935548        8.3383988797
  H        10.9758688755       10.0385314442        7.3736323879
  H        10.9356292590        8.4341643762        8.0621653222
  H        10.1895754548        9.7139462424        8.9610564403
  H         5.1476990462        2.6566654294       12.3216130289
  C         4.0761723101        2.7383356819       12.3712224235
  H         3.8512394709        3.7314746617       12.1995333448
  C         3.4986273646        1.9491492595       11.2489636050
  C         3.5632582458        2.2863958763       13.8101207716
  C         4.2792172556        2.1208934196        9.9144813252
  H         2.3769243707        2.1343426510       11.2546448088
  H         3.6270628036        0.8899331309       11.5424441661
  H         2.5992821336        2.5394908995       14.1728420181
  H         4.2186567294        2.8000666914       14.4945823808
  H         3.6054667430        1.2479569088       14.0252097597
  C         5.3939874943        1.0573836266        9.6925540208
  H         3.4685733499        1.9633064097        9.1261373768
  H         4.6399776023        3.1287519196        9.8603869935
  C         6.2692317139        1.3648939860        8.4801645876
  H         4.9432817287        0.0468965764        9.7161539100
  H         5.9496228409        1.0130665547       10.6354778029
  C         7.2618886165        2.4889928561        8.6179308496
  H         5.6687294809        1.6610755998        7.6405806450
  H         6.6451952071        0.4432890614        8.0021067770
  C         8.5724500505        1.9975029921        9.2615476438
  H         7.3025055252        2.8029492302        7.6088542537
  H         6.7371891204        3.3062569697        9.1135797417
  C         9.7078608799        3.0415340164        9.3247826867
  H         8.9111255157        1.2940132459        8.5292890276
  H         8.3918851379        1.4059006478       10.1884896892
  C         9.2681400733        4.4186906137        9.9019259036
  C        10.0032070135        3.6582941056        7.9371471270
  C        10.8813542540        2.4321466103       10.0402489406
  C         9.3984621087        5.4453089705        9.0217766455
  C         8.6936218944        4.7923214136       11.1058507971
  C         9.8070264529        5.0196362038        7.7560926245
  C        10.3678261816        3.0330583930        6.7559669043
  H        10.5335271807        2.1167897100       11.0136883094
  H        11.0998758083        1.5798487187        9.3604060088
  C        12.0177346223        3.4069008251       10.3107376401
  S         8.8559299541        6.9815023544        9.6911617591
  C         8.4825742728        6.1790398752       11.1697087746
  H         8.5183099619        4.0432612249       11.8572710045
  C         9.9902283873        5.5694169048        6.5409585986
  H        10.2895927926        1.9275224799        6.7540248313
  C        10.6699953094        3.6348351251        5.5578341368
  H        11.6694969021        4.3122982965       10.7868478652
  H        12.5130100130        3.7109627798        9.4447526910
  C        13.1346371484        2.8456805964       11.1692465735
  C         8.0464014949        6.8257257439       12.4521789725
  C        10.4969952045        4.9833078765        5.4138219529
  H         9.6269648209        6.5611698385        6.5221283471
  C        11.0115311118        3.2893787273        4.2656096210
  H        14.0576521945        3.3606202156       11.0048796464
  H        13.2500217232        1.8403848154       10.8367616278
  C        12.6549106276        2.8640997436       12.6380366136
  C         7.9023942840        8.1974481909       12.6889602715
  C         7.5551444485        5.9079827698       13.5557137154
  C        10.7853974258        5.6366546710        4.1667946916
  C        11.1855098685        4.3501777011        3.3872716263
  S        11.3771255687        1.8315625566        3.4996186847
  H        12.1620286001        3.7853742466       12.9743374136
  H        11.8876941378        2.1316343728       12.5992442301
  C        13.5219121899        2.3132643344       13.6828543676
  N         8.1882940237        9.2092579460       11.7380169779
  C         7.6144349453        8.6912915362       13.9416772153
  C         7.1408850966        6.4848263483       14.7287189888
  H         7.5157675261        4.8074189668       13.3794113316
  C        12.0918058117        6.5499208416        4.2898949459
  C         9.5581573501        6.3689867972        3.4734554894
  C        11.4644932155        3.9855897913        2.0902718948
  C        11.6697678015        2.6232308022        2.0496692041
  H        14.4832052814        2.8272722588       13.5616901139
  H        13.5800477858        1.2522855246       13.5697552237
  C        12.9586226001        2.5561602906       15.0415912303
  S         8.2304518502       10.6499411618       12.5639161087
  N         7.6849429386       10.0836668337       14.0057043515
  C         7.2707997767        7.8897730102       15.0655120303
  H         6.7991245796        5.8988634935       15.5490933421
  H        11.8039298626        7.4556070462        4.8237758461
  H        12.4702932986        6.7981861398        3.2473225486
  C        13.2885452592        5.8526823191        5.0062323333
  H         9.2616996487        7.1669815552        4.0826525137
  H         9.8561354110        6.9805920966        2.6553702269
  C         8.4944229294        5.4043760244        3.0845660163
  H        11.4629851817        4.7163888302        1.3000984397
  C        11.7946767482        1.8376137369        0.7885119463
  H        12.5401037751        3.5125916689       15.2760099849
  H        12.2349693665        1.8447268907       15.2437684297
  C        13.9901036193        2.3859476876       16.2020039773
  C         7.0165296884        8.5891891165       16.3080506869
  H        12.9767083200        5.5993151843        6.0295777679
  H        13.4896363207        4.8488761551        4.5116429185
  C        14.6119157440        6.6579132583        5.1195463339
  H         8.0029354909        4.9508002719        3.9918112413
  H         8.9502697133        4.6099971965        2.5051739722
  C         7.4751876025        6.2144614220        2.3196916635
  C        11.7747824159        0.4138520902        0.6866607237
  C        12.0763382366        2.6036147504       -0.4659785197
  H        14.8175488356        3.0439901954       15.9574160846
  H        14.2566416458        1.3773967999       16.2232427292
  C        13.3247588835        2.8088136036       17.5819540957
  H         7.3185280472        9.6259993064       16.3682797244
  C         6.6764669614        8.1330513882       17.5728566619
  H        14.5640744310        7.5260732598        5.7895480490
  H        14.8102138772        7.0606690367        4.1335037083
  C        15.7491109112        5.7178332454        5.4973007861
  H         7.3467626675        7.2096174715        2.7530063231
  H         7.7907623163        6.4334172975        1.3261087535
  C         6.1696004361        5.4620192336        2.3084335672
  N        11.5411259022       -0.4755105506        1.7796854739
  C        11.9672474453       -0.2423556577       -0.4970656756
  C        12.2649511776        1.8956429697       -1.6880505411
  H        12.2322836777        3.6285469122       -0.3621413345
  H        12.3796279422        2.2738825311       17.7170172543
  H        13.1277862842        3.7945686496       17.6620561291
  H        14.1902816628        2.5666860173       18.2969850698
  S         6.4034234009        6.4910804980       18.0953016396
  C         6.5201515443        9.1244359305       18.6135421160
  H        15.2633286763        4.8703475816        6.0513288238
  H        16.2789036417        5.3390775799        4.5980405670
  C        16.5835099854        6.3967955613        6.5749035675
  H         5.7376442912        5.4754796209        3.3363649539
  H         6.2530816250        4.4497208940        1.9266781091
  C         5.1269198531        6.1074299931        1.4234666136
  S        11.4342455310       -1.9698036595        1.2054519568
  N        11.9320249228       -1.6121567592       -0.3362426909
  C        12.2380751744        0.3886450781       -1.7238714103
  H        12.6882915457        2.4687898283       -2.5021919980
  C         6.0206322188        7.1288135663       19.6298818159
  N         6.1419005079        8.4503077053       19.7273168917
  O         6.6783548670       10.3856017085       18.5145596146
  H        17.1638199566        7.1813830096        6.1202037184
  H        15.8814294685        6.8225106997        7.2695230739
  C        17.6146418515        5.4062462802        7.0957131006
  H         5.5255736519        6.3558352109        0.4190929020
  H         4.3683785199        5.3674482172        1.1817132458
  C         4.6290744409        7.4934989878        1.9803189405
  C        12.5674090201       -0.3496876437       -2.9288570420
  S         5.6919648703        6.2756569776       21.0978332973
  C         5.9215003165        9.1817042580       20.9971339982
  H        17.0716864875        4.9692478948        7.9112031533
  H        17.6987584373        4.5744957333        6.4331963600
  C        18.8599335907        5.9785088824        7.5981213472
  H         5.2963095617        7.8345596929        2.7375687097
  H         3.6315269598        7.3225108420        2.3746904069
  C         4.6610728769        8.6757311212        0.9794277220
  H        12.4698489964       -1.4142909324       -2.9139212784
  C        13.0249530327        0.0427418127       -4.1962033490
  H         5.2004443611        8.6775733206       21.7232812127
  H         5.4615341602       10.1806223132       20.9644232990
  C         7.3116896409        9.3688974264       21.6638599024
  H        19.1814234306        5.4734071464        8.5233210577
  H        18.6831294368        7.0123767807        7.9027667298
  C        19.9931447512        5.9546656027        6.5884319931
  H         5.5725096461        8.6225915318        0.3864558710
  H         3.8643304410        8.5666009623        0.3250084862
  C         4.5457726094       10.0262439226        1.7309157336
  S        13.2862414066        1.5988678377       -4.7228745906
  C        13.1823734629       -1.0283953060       -5.2208493712
  H         8.0003244486        8.6778417775       21.2232496579
  H         7.2231720482        9.0972341506       22.6987586532
  H         7.6369280213       10.3941587930       21.4754358766
  H        20.4498543141        5.0811563757        6.3967019123
  H        19.5982493328        6.2311730120        5.6313167872
  H        20.7719857043        6.7082698361        6.7672436489
  H         5.5454437375       10.3617179085        2.0900688393
  H         4.1677556843       10.7027696138        0.9684178873
  H         4.0283376191        9.9583106905        2.7040277847
  C        13.8632245509        0.9309848896       -6.2212640731
  N        13.6768863309       -0.3854554431       -6.2998302516
  O        13.0594421959       -2.2062316874       -5.0573668463
  S        14.2653700295        1.8022980803       -7.7740606288
  C        14.0060275759       -1.2094847425       -7.4515094418
  H        14.4080818856       -2.1425394268       -7.1076356738
  H        14.8146454732       -0.7305441610       -8.0246434380
  C        12.7195323969       -1.3451489587       -8.3081081932
  H        12.8858111209       -1.9289301769       -9.1912742010
  H        12.3389392264       -0.3506060705       -8.6276875082
  H        12.0143844457       -1.8670528626       -7.7567186252
