352
 i =    72500, time =    36250.000, E =        98.1876287541
  H        11.3457873734        7.7910894939       32.2936053223
  C        11.8065937145        6.7607348030       32.2665313239
  H        12.9255205055        6.9360170379       32.2086193588
  C        11.2579710517        5.9279148927       31.0506483012
  C        11.5202162393        5.9608573824       33.5454251480
  C        11.3487145661        6.6422467498       29.7480325189
  H        11.9208691841        5.0768021995       30.9619772058
  H        10.1859800989        5.5853597739       31.1759828297
  H        11.7822002413        4.8782684904       33.6186757824
  H        12.0506844216        6.5937704369       34.2886672497
  H        10.4479747621        5.9713108020       33.8301963295
  C        10.1796464165        6.4748577742       28.7759201696
  H        12.2517328908        6.3117097856       29.2720831990
  H        11.5503545194        7.6720153301       29.9153267375
  C        10.4759442723        6.1933633063       27.3281251125
  H         9.4822374582        5.7481960147       29.1447279690
  H         9.7185340222        7.4092827978       28.7339613280
  C         9.5995100588        5.3085156423       26.5133537400
  H        11.4817433427        5.7525534188       27.3799587016
  H        10.7945374888        7.1761260111       26.8323594623
  C         8.5268147184        6.1682911510       25.9228772640
  H        10.1656264394        4.9055441228       25.6421918263
  H         9.3777854939        4.4513892299       27.1372592882
  C         7.3879140795        5.4490367203       25.1805497203
  H         8.1401390198        6.8212837707       26.7340084354
  H         9.0179681909        6.8364258614       25.2074754129
  C         7.0234745891        4.1166457408       25.8792006522
  C         7.9092688449        4.6919787962       24.0035902561
  C         6.1310919010        6.3957827864       24.8462815551
  C         7.4075696822        2.9762830453       25.1744281399
  C         6.4993550832        3.7828194688       27.1594796071
  C         7.9304744019        3.3433680906       23.9486360755
  C         8.3102527898        5.2839022406       22.7386642898
  H         6.4253724581        7.0112380824       23.9996788930
  H         5.9830014386        7.0657464289       25.6776691176
  C         4.7781957499        5.6340102846       24.5533739304
  S         7.1345588724        1.4887928756       25.9569853469
  C         6.4567657368        2.4152160616       27.2559817155
  H         6.2633692910        4.5269985524       27.9233162010
  C         8.3510307997        2.7140302909       22.8188846092
  H         8.3051152687        6.3808634018       22.6779764614
  C         8.7428236507        4.6551635591       21.6801114345
  H         4.8364259443        4.8737128575       23.7209779772
  H         4.6214084350        4.9987284078       25.3861704548
  C         3.5755560549        6.4844827631       24.5157704373
  C         6.0883084604        1.7413280682       28.5407889636
  C         8.8367789606        3.3164727466       21.6484989987
  H         8.2764862640        1.6570681578       22.8496772387
  C         9.1738354765        5.0744212876       20.4247181444
  H         2.8456217774        5.9347396967       23.9569263636
  H         3.7530273693        7.4485381398       24.1978735014
  C         2.7827045851        6.7066367570       25.8116083679
  C         6.0852840412        0.3485633321       28.8120812264
  C         5.6633359405        2.6256655968       29.6693592882
  C         9.2551039091        2.6016676269       20.4678290783
  C         9.5674147308        3.9540366482       19.7010619396
  S         9.1930053452        6.4988082935       19.5501961758
  H         2.1881885876        7.5667206779       25.8239111736
  H         3.4611370992        6.7944204543       26.6267011568
  C         1.9309276973        5.5396489225       26.1264512798
  N         6.5544051371       -0.6365349373       27.9675251218
  C         5.9200433588       -0.1584675398       30.0596034878
  C         5.3152063156        2.0689031683       30.8791736122
  H         5.3586758398        3.6245032938       29.6053933296
  C         8.0487860891        1.8241432821       19.9134930885
  C        10.5162708468        1.7189329805       20.7576123997
  C         9.9015665836        4.3144834596       18.3851118236
  C         9.8089031990        5.6750262189       18.1871151256
  H         1.2264752160        5.4617811352       25.2820434701
  H         2.4814304270        4.5694567556       26.1420756038
  C         1.2535996776        5.6549505714       27.5290597842
  S         6.4432284480       -2.0822144796       28.7123843077
  N         6.0742402690       -1.5044168789       30.1932030803
  C         5.4826045258        0.6315551370       31.1627690236
  H         4.8930324647        2.6603009138       31.6590050071
  H         7.7332901572        0.9288734497       20.5744933781
  H         8.4755308365        1.4728147438       18.9520609227
  C         6.8057540142        2.5847697340       19.5762882120
  H        10.6924399030        1.0494780726       19.9513753518
  H        10.4423418325        1.0150996761       21.6107183297
  C        11.7428725008        2.6062099457       20.9978549344
  H         9.9870781324        3.5509912876       17.6152055216
  C        10.0974112716        6.4175424890       16.9162273905
  H         0.5193262279        4.8782988832       27.6058636281
  H         0.7340254238        6.5692847345       27.7472637856
  C         2.1741436028        5.3727113867       28.7322163137
  C         5.2997617313        0.0185111969       32.4231373437
  H         7.2437664846        3.3179338053       18.8157789221
  H         6.5061068713        3.1517390196       20.4699674840
  C         5.6742326207        1.6651010779       19.0243219073
  H        11.6715968802        3.2157369835       21.9165226695
  H        11.8642115144        3.2036140645       20.0707054631
  C        13.0023329511        1.6657734637       21.0106687793
  C        10.1355741980        7.8150931340       16.6824285233
  C        10.1827865099        5.6479976029       15.6322404282
  H         2.4789372611        4.3267017757       28.7454097440
  H         3.0585943468        6.0318889655       28.7638288985
  C         1.3815551744        5.6463734225       30.0764355551
  H         5.1828099772       -1.0588642214       32.3917592321
  C         5.0288596622        0.4710469637       33.7284261930
  H         5.2160000454        1.2538048642       19.9265416469
  H         6.1753031666        0.8947165163       18.4130341588
  C         4.5146785167        2.2970654862       18.2212577207
  H        12.9717498887        1.0464233321       21.9499335194
  H        13.0474567065        0.9788524191       20.2074123783
  C        14.3536082277        2.3996591052       21.1142308320
  N        10.0463183411        8.7467485008       17.7135592180
  C        10.5384444739        8.3934444361       15.4876102207
  C        10.4597220173        6.2457408105       14.3965937638
  H         9.9225185749        4.6139586613       15.6915763976
  H         0.5383607994        6.2624353648       29.9323295384
  H         1.1441669107        4.7044234933       30.4862688045
  H         2.0348243211        6.2324947385       30.8115315839
  S         4.5892805343        2.0458953735       34.3000382121
  C         4.9490474817       -0.5731628930       34.8040688481
  H         4.4226817366        3.2346407955       18.7099748971
  H         4.8687010786        2.5230591492       17.1893238447
  C         3.1468841306        1.5634498726       18.1237269177
  H        14.3958441995        3.3771976102       20.6603262955
  H        15.1410453343        1.7114682607       20.7853906228
  C        14.7064285652        2.6513947459       22.5099138331
  S        10.2346321539       10.2621663355       17.1267573876
  N        10.6123344186        9.7403242687       15.6142592936
  C        10.6116237847        7.7037798707       14.2531119016
  H        10.6651978125        5.6027349495       13.5133108614
  C         4.4534587655        1.3160465914       35.8799416916
  N         4.5291226301       -0.0476540232       35.9552313947
  O         5.0519716079       -1.8002464110       34.6767730945
  H         2.4973216781        2.1740240950       17.5433493051
  H         2.5381291003        1.5936628693       18.9988839075
  C         3.2726648680        0.1919851437       17.4815567664
  H        13.8738620358        3.2756173322       22.9216786125
  H        14.7168841738        1.7417115048       23.1219495823
  C        15.9203359058        3.6027407290       22.8435297056
  C        10.9711178400        8.4022998615       13.0529442621
  S         3.8757429288        2.0293009234       37.3661089224
  C         4.3146485151       -0.7689619786       37.2133629763
  H         3.0670168406        0.1683518709       16.4234553747
  H         4.2116533306       -0.2822316730       17.6417185239
  C         2.1702920118       -0.6494652147       18.0370093336
  H        16.2749647797        3.3156465833       23.8163988879
  H        15.5773261556        4.5992109812       22.9349571479
  C        17.1253518131        3.3367025835       21.9224160167
  H        10.6914474558        9.4366628715       13.1911737296
  C        11.5521160691        8.0945434261       11.8717424647
  H         3.3821661371       -0.4379304906       37.7881218961
  H         4.0919573083       -1.8011704878       37.0080607354
  C         5.6546879062       -0.8525235624       38.0316478046
  H         1.2327558467       -0.3604442024       17.6066014976
  H         2.1275021312       -0.5613938556       19.0697568401
  C         2.3646129566       -2.1507723994       17.8281164777
  H        16.8376705189        3.0067471752       20.9806737921
  H        17.6247422427        4.2188401070       21.9310823316
  C        18.0434808687        2.2016762852       22.4176994551
  S        12.2745436408        6.6375738001       11.3496910501
  C        11.6037909450        9.2002951115       10.9223662335
  H         6.4176868923       -0.2404647665       37.6269706688
  H         5.3562189375       -0.6083557742       39.0529775681
  H         6.0609058308       -1.8571745048       38.1203627009
  H         1.9227447800       -2.6465677592       16.9271947767
  H         1.8733958517       -2.6383006478       18.7308299951
  H         3.4161643705       -2.4502666440       17.8055821685
  H        18.6602140377        1.6204868660       21.6945602905
  H        17.4409296760        1.4802310853       23.0467277340
  H        18.7170358585        2.6558778533       23.1713883238
  C        12.6040704622        7.5325156962        9.8373137823
  N        12.3100937090        8.8447638978        9.8559970619
  O        11.2217007840       10.3229480148       11.2093305201
  S        13.3843300436        6.8521238343        8.4263890922
  C        12.5160877307        9.7666454267        8.7326101321
  H        12.3512306864       10.7371089553        9.1839308494
  H        13.5696561314        9.6632379418        8.3782313562
  C        11.4579918983        9.4810414419        7.7534192207
  H        11.6942811933        8.6152583504        7.1603672100
  H        10.5254165234        9.4514152564        8.3339162249
  H        11.3725515819       10.3297746947        7.0484551531
  H         2.7180765532        1.7327255437       12.7766973000
  C         3.5402533480        2.4452642188       12.8523986345
  H         4.3626637622        1.6817511467       12.6981176007
  C         3.3064600473        3.4530094807       11.7130368198
  C         3.4713336784        2.9077366449       14.2028052098
  C         4.3904486103        3.4776019789       10.6655364750
  H         3.1252535672        4.4212444887       12.0159646246
  H         2.4172015145        3.1058482437       11.1953299881
  H         3.2196250909        2.1170095645       14.9146556820
  H         2.7922692812        3.7488746101       14.2815112722
  H         4.4099764649        3.3308249663       14.6050628170
  C         4.5965750574        2.1654384736        9.9181803622
  H         4.0403297102        4.1775069815        9.8786993875
  H         5.2840795104        3.8986951684       11.1493236206
  C         5.2822022851        2.4200558066        8.4865590297
  H         3.7161536944        1.5276926740        9.8781045625
  H         5.2822455329        1.5581655038       10.4649833059
  C         6.6623960658        3.1157381477        8.5001761898
  H         4.5943356690        3.0500050271        8.0194487152
  H         5.4218153568        1.5255596394        7.9107299575
  C         7.8660995095        2.2811841917        8.9732940627
  H         6.9738453719        3.2425357417        7.4904143002
  H         6.5585070802        4.1177816148        8.9345460576
  C         9.1353516936        3.0804585948        9.1050491162
  H         8.1196088974        1.5064609799        8.2464748624
  H         7.5408534727        1.6615482291        9.8393269997
  C         8.8710214980        4.4056169037        9.8209275394
  C         9.6242610300        3.8059299658        7.8683082348
  C        10.2870325044        2.3179171969        9.7627657596
  C         9.1535165764        5.5297478409        9.0800367306
  C         8.2893679483        4.7897620016       11.0100299588
  C         9.6669378150        5.1103396020        7.8323382281
  C        10.0185594955        3.1904716307        6.6935636305
  H         9.9507181463        2.0109673137       10.7250677521
  H        10.4538555392        1.3885142572        9.2465737469
  C        11.5348967124        3.1783881263        9.8771803263
  S         8.8766575886        7.0328680533        9.8603003875
  C         8.1952915869        6.1384726223       11.1837408400
  H         8.0270484070        4.0483711325       11.7761943435
  C        10.1008565526        5.7730891400        6.7242239190
  H         9.9160906529        2.1181416075        6.6484775486
  C        10.4943750030        3.7923040234        5.5572914910
  H        11.4185086368        4.2125370247       10.2527005496
  H        12.0291739460        3.4139896285        8.9496913753
  C        12.5911859766        2.4947375140       10.7695634520
  C         7.7072505263        6.8489700131       12.4328887902
  C        10.4495272331        5.1578317575        5.5068410098
  H        10.1420793247        6.8529793085        6.6808170427
  C        10.9727796553        3.4053271939        4.3564675815
  H        13.4627464114        3.0858992092       10.7212238557
  H        12.8518994214        1.5086585513       10.4234870324
  C        12.1961093720        2.5713165505       12.2940801760
  C         7.7404306838        8.2413307921       12.6636104748
  C         7.1646831288        6.0362236141       13.5801732570
  C        10.9199781478        5.7970419572        4.2275009323
  C        11.1599781947        4.4889154486        3.5312548954
  S        11.4732353185        1.9318292004        3.5448421868
  H        12.0919942300        3.6306810367       12.6281037400
  H        11.1376583848        2.1488436148       12.3993170966
  C        13.1913090078        1.8499824043       13.2198206096
  N         7.9897832506        9.1320789411       11.6681573610
  C         7.4821261195        8.7938795367       13.8849579344
  C         6.8325756760        6.6248094464       14.7850670024
  H         6.9435045072        4.9770400648       13.3766564024
  C        12.2471474451        6.5863590788        4.5316002802
  C         9.9329606250        6.7065409169        3.5930533521
  C        11.5139088761        4.1847896685        2.2584150948
  C        11.6935086088        2.8400391174        2.0578492376
  H        13.9838113964        2.5289478335       13.3963418180
  H        13.7919483940        1.1892404470       12.5545517660
  C        12.6320379446        1.0053526488       14.3296250187
  S         7.8266989660       10.6183821937       12.3536900409
  N         7.4953983207       10.1313505664       13.8745212481
  C         7.0831077025        8.0710178357       15.0142833263
  H         6.3842427082        5.9961774751       15.5199270207
  H        12.0688552308        7.2693184838        5.3762282552
  H        12.5373179091        7.0931155513        3.6529140199
  C        13.3460888331        5.6122671740        4.9339316371
  H         9.7548109980        7.6277433352        4.1666802168
  H        10.2856470381        6.9515080964        2.5924052511
  C         8.6008984357        5.9965647800        3.3249440082
  H        11.7160365936        4.9569557832        1.5797958123
  C        11.9886938417        2.1807679264        0.7585692765
  H        12.1717728301        0.1044786070       13.8866235699
  H        13.4301022559        0.5659051217       14.9238601231
  C        11.6800384684        1.7091087542       15.2772273877
  C         6.7857051049        8.7364017295       16.2527130960
  H        13.0859361294        5.2147751901        5.9417632565
  H        13.5165855118        4.8143106584        4.2506178551
  C        14.6993080560        6.3218453784        5.1263504469
  H         8.1260177614        6.0737587644        4.2905834803
  H         8.6324191349        4.9507733426        3.1192972604
  C         7.6163892737        6.8058860826        2.3712350382
  C        12.2907659770        0.8503194175        0.6120149960
  C        12.0921343064        3.0021655370       -0.4792286891
  H        10.9178227205        1.0382172281       15.6369055364
  H        11.1860455184        2.5337030230       14.7653284194
  C        12.5686129518        2.0771755024       16.4297564317
  H         6.9787391277        9.7868848326       16.2016047383
  C         6.3402726625        8.2351548050       17.4787289040
  H        14.4060337694        7.1232342946        5.7138422055
  H        15.1545566954        6.7095934769        4.1616083621
  C        15.5775486435        5.4276320380        5.9503079468
  H         7.5483270368        7.7555833312        2.8346251373
  H         8.0822540027        6.9661808677        1.3864499210
  C         6.2528774943        6.0757696286        2.1979043812
  N        12.2840662698       -0.0714841499        1.6482800755
  C        12.6009187225        0.3018162916       -0.5632930508
  C        12.4987401447        2.4354832967       -1.6700551267
  H        11.7955654981        4.0750156170       -0.5308303736
  H        13.3355351061        2.5303986823       15.9701952548
  H        12.9356320056        1.2549009247       17.0599998212
  H        12.0363079031        2.8543028509       16.9973016210
  S         6.0264691822        6.5649978576       17.9828643745
  C         6.4224158106        9.1882605192       18.6557733074
  H        15.0920484978        4.9139855555        6.8163072517
  H        15.9618748444        4.5810268459        5.4140754805
  C        16.7361429083        6.3383035660        6.4944116201
  H         5.8435248645        5.7379456886        3.1467365836
  H         6.4112459865        5.1207930500        1.6786993106
  C         5.1440188681        6.8630990161        1.3810051889
  S        12.3871447779       -1.5558511402        1.0042546878
  N        12.8447977339       -1.0568784257       -0.4684691110
  C        12.6799857147        1.0004837920       -1.8043483890
  H        12.4648333239        3.0324923263       -2.5833842006
  C         5.7572594243        7.2060387985       19.6378189227
  N         5.9722618282        8.5978127983       19.7943686636
  O         6.5876930513       10.3655598163       18.4193499175
  H        17.3237988025        6.8389400843        5.7056199953
  H        16.3112909721        7.0158649688        7.2614291061
  C        17.7735744603        5.4731986311        7.2282319584
  H         5.7393589968        7.3237986556        0.5754698916
  H         4.4437443755        6.1266035604        0.9059868749
  C         4.4270578846        7.9073268773        2.2486022957
  C        13.0634337798        0.2813884728       -2.9609012313
  S         5.5257918780        6.2182041971       21.1057811132
  C         6.1320810605        9.3096534000       21.0705679461
  H        17.3196619021        5.0807226200        8.1295264705
  H        17.8774498158        4.5024118324        6.7178716832
  C        19.0724256282        6.1976386833        7.7229895173
  H         4.9603498713        8.1476948968        3.1397178801
  H         3.5664412556        7.4622535362        2.6939528628
  C         4.0627471749        9.1302384905        1.4195752656
  H        12.9431244390       -0.7692019602       -2.9633221291
  C        13.6346937039        0.6510467231       -4.1909772516
  H         5.5424264142        8.9096472992       21.9495964420
  H         5.8719558953       10.3168312496       20.9501370018
  C         7.6866858323        9.3736288100       21.4238872725
  H        19.3742516799        5.5864870974        8.6083376071
  H        18.8573094055        7.1551407397        8.1116640269
  C        20.1517132332        6.3213589488        6.6465304051
  H         3.6563876050        8.8003295120        0.4548140559
  H         3.1914286100        9.5564596696        1.8128400994
  C         5.1237098685       10.1520406589        1.2011484820
  S        14.2044144698        2.1687309121       -4.5379881810
  C        13.7025752441       -0.3526144299       -5.2437021609
  H         7.8600174479        9.0461672124       22.4198389449
  H         8.0628052011       10.3838656536       21.2854380385
  H         8.2137186978        8.7049844208       20.7734199550
  H        20.2067144567        5.3479210400        6.1079728998
  H        19.9674782065        7.1398845972        5.9654931425
  H        21.1497795643        6.3838101536        7.0792462826
  H         5.4192179911       10.6037217093        2.1475753143
  H         6.0447596618        9.6981257076        0.7171301464
  H         4.7391582970       10.9329541021        0.5213140034
  C        14.5635061464        1.5244395495       -6.2171044856
  N        14.3008322115        0.2372382399       -6.3157620083
  O        13.2892026119       -1.5079459544       -5.2544162763
  S        15.3814895821        2.4453635457       -7.4146966543
  C        14.4884386682       -0.5117192814       -7.5119416756
  H        14.7184033116       -1.6099279639       -7.4322738855
  H        15.1840810564       -0.0886423195       -8.2007020251
  C        13.2375322514       -0.3381771873       -8.4096885730
  H        12.9708732207        0.6604418659       -8.5884804981
  H        12.2819567566       -0.8073379846       -7.8841453606
  H        13.4320049926       -0.7605945786       -9.3368281377
