352
 i =     5400, time =     2700.000, E =       178.6377124411
  H        12.1748571376        6.0854063397       31.8816750402
  C        11.3049147816        5.6293111225       32.1522826936
  H        11.5385352120        4.5826084379       32.1321298431
  C        10.2221384621        5.8547177194       31.1640111265
  C        10.8682011667        6.0066718511       33.4846020036
  C        10.4826006455        5.3138401724       29.6799108833
  H         9.3076875859        5.5660670958       31.5928319057
  H        10.0032317867        6.9225490182       31.1932862116
  H        10.1417047863        6.8860462213       33.5582965244
  H        10.4275972915        5.1940581589       33.9580215433
  H        11.6609519810        6.0954932948       34.2357577967
  C        11.0723132057        6.2191216250       28.6037749911
  H         9.4612935938        5.1853947469       29.4467599908
  H        10.8278550673        4.3706626601       29.6455200468
  C        11.1133249150        5.6266765871       27.1699076047
  H        10.5711210319        7.2112117947       28.5982828697
  H        12.1386276495        6.3311038983       28.9964437580
  C         9.8781319863        4.8939394888       26.5791425929
  H        11.9077663839        4.9117720497       26.9891376264
  H        11.3081167753        6.5049009616       26.5163397815
  C         8.6872264077        5.7911445709       26.2012543977
  H        10.3091524293        4.4927701364       25.6613780479
  H         9.7723906444        3.9036283869       27.0737385166
  C         7.5640048102        5.1637360340       25.4617699805
  H         8.4031914416        6.1888152326       27.1162769858
  H         9.0550037922        6.4532373025       25.4409169268
  C         7.1919055801        3.9129062227       26.1575135788
  C         7.8813926914        4.4567593897       24.1761037993
  C         6.3105036396        6.0517955385       25.2006579679
  C         7.3034510149        2.8207446665       25.3206191435
  C         6.5620188400        3.5699891228       27.3180360374
  C         7.8691601017        3.1044967823       24.0698431978
  C         8.2378615411        5.0602527255       22.9653753063
  H         6.7336783613        6.7790797982       24.4323641732
  H         6.1096327509        6.6885270529       25.9999918698
  C         4.9803384914        5.4439535027       24.8051005289
  S         6.8827906675        1.3508277993       26.0293744770
  C         6.4433573557        2.1730238296       27.5049148805
  H         6.2427670002        4.3222563232       28.0742367136
  C         8.2086401674        2.3881853922       22.9508145267
  H         8.5746814739        6.1382756876       23.0027755164
  C         8.6257014990        4.3026451820       21.8461771085
  H         5.4426386208        5.1387963571       23.8320723322
  H         4.7933356035        4.5228968668       25.3367535924
  C         3.8019114751        6.3537644190       24.5393210113
  C         6.0120620719        1.4880257283       28.7689477811
  C         8.6144846558        2.9478970954       21.8098713030
  H         7.9287441121        1.3126308288       22.8074579687
  C         9.1589005770        4.6856301242       20.6174399635
  H         3.1858368303        5.7810511460       23.8620748136
  H         3.9608264735        7.4696720438       24.1751492517
  C         3.1066512497        6.5428682189       25.8448263163
  C         6.0025927060        0.0660052067       28.9514826111
  C         5.5067441388        2.2831739537       29.8889442891
  C         9.0214596235        2.2705688793       20.5059763713
  C         9.3587231379        3.5988956192       19.8114427446
  S         9.2901971660        6.1416685352       19.6865688817
  H         2.4402930738        7.3488337622       25.8480669122
  H         3.8889340385        6.8672209455       26.5220977851
  C         2.2517471816        5.4166630335       26.3388330967
  N         6.4623388155       -0.8806009439       28.0761428849
  C         5.6209316787       -0.5270414909       30.2024557099
  C         5.1899942650        1.7338444870       31.1128467233
  H         5.5058224376        3.3595139778       29.8290450169
  C         7.9237550254        1.4152007090       19.8951408802
  C        10.3390560027        1.4333793923       20.5880329541
  C         9.6739981849        3.8718335439       18.4453936040
  C         9.6088632068        5.2518475913       18.2528259198
  H         1.4166794697        5.2531914188       25.7353488628
  H         2.8409975813        4.5052679146       26.5158001612
  C         1.6520345756        5.7926811522       27.7683081157
  S         6.2464409877       -2.3738281528       28.8277794595
  N         5.6664966258       -1.8867599500       30.2384386009
  C         5.2476621952        0.3008831097       31.3054700506
  H         4.9700841022        2.5301476849       31.8842167579
  H         7.6297240069        0.7497935387       20.6381067252
  H         8.3493974796        0.9144498921       18.9961764121
  C         6.8212118213        2.2918993945       19.3964909378
  H        10.3752320659        0.8288778775       19.7063790587
  H        10.2361397791        0.7105133935       21.3944850664
  C        11.5406795381        2.1655334124       20.9847483969
  H         9.7693056779        3.0002789451       17.7015024144
  C         9.8859393101        5.9478468336       16.9496204387
  H         0.7518468233        5.3051222621       28.0478852822
  H         1.3636543493        6.7964283969       27.5528160005
  C         2.7095097358        5.5431199876       28.8559301297
  C         4.9350025041       -0.3829037126       32.4928895422
  H         7.0905408153        3.0494492006       18.6658823455
  H         6.3982974844        2.9440946763       20.2000530223
  C         5.5660775843        1.4437522444       18.9525895302
  H        11.3025653448        2.7200968168       21.8314760247
  H        11.8543000830        2.9422101745       20.2892069383
  C        12.8275288731        1.2923474542       21.2387919636
  C         9.8295658644        7.4529400071       16.8455126844
  C        10.3568016101        5.2346020693       15.7318753380
  H         2.9903256592        4.4774091332       28.8901572244
  H         3.5757349287        6.3198218020       28.6521220607
  C         2.1090519521        5.7356585946       30.2147522706
  H         5.2155502182       -1.3986175801       32.5272453732
  C         4.7304338683       -0.1037416226       33.8131133280
  H         5.2354355947        0.9281899951       19.8632055570
  H         5.8283848875        0.6236154701       18.2650262241
  C         4.4535541015        2.2812649463       18.3669469243
  H        12.7854743426        0.7915414371       22.1866550398
  H        12.8375558957        0.6795091274       20.3091520773
  C        14.1879687588        2.0635497858       21.2823280887
  N         9.4201910395        8.4167043147       17.8078664345
  C        10.2697159918        8.0345025908       15.6454372006
  C        10.8279789996        5.8748441058       14.5981091299
  H        10.4512856732        4.2283969140       15.9291488300
  H         2.9025016086        5.9650142152       30.9614722909
  H         1.5686719140        6.6071182653       30.2468317378
  H         1.4696710130        4.9594810952       30.6451818220
  S         4.3654269702        1.4880951236       34.3984434847
  C         4.7496408608       -1.2018905772       34.7587182114
  H         4.3983885176        3.3411714268       18.8462751455
  H         4.7199416400        2.4966656938       17.3163953559
  C         3.1208101178        1.7065507796       18.5566066134
  H        14.3139138435        2.7230665844       20.3929581205
  H        14.9746892709        1.3335045871       21.3546742538
  C        14.2175652307        3.0178340992       22.4862656026
  S         9.5474507098        9.8649296087       17.0626953117
  N        10.1885737514        9.4097755905       15.6990386412
  C        10.6736894964        7.3239961602       14.4301572552
  H        11.1573882201        5.2003061866       13.8607609163
  C         4.2689164465        0.7140499507       35.9934594818
  N         4.3868791534       -0.6367151620       35.9486234131
  O         4.9819833972       -2.4019962556       34.5903545243
  H         2.2807994717        2.3216041904       18.1671006229
  H         2.9696555675        1.3753692089       19.4957223606
  C         2.9481827648        0.4954409092       17.5502631230
  H        13.5442219840        3.8215352382       22.3322689833
  H        13.8040948972        2.3941235222       23.2896398291
  C        15.6036175047        3.5222278806       22.9882506141
  C        10.8364580275        8.0821552701       13.2232006574
  S         3.7699755375        1.3757564264       37.4314994837
  C         4.3985596555       -1.4658018650       37.0917171724
  H         2.0287852854        0.6376527614       17.0544913364
  H         3.8253307095        0.4686301999       16.8117106985
  C         2.8856768248       -0.8643662771       18.1359187677
  H        15.3655331648        4.3048135715       23.5683626811
  H        16.1074682675        4.0707023350       22.2260094566
  C        16.5046998697        2.4874859123       23.4790893142
  H        10.8669888927        9.1801216418       13.3469674385
  C        11.5377516287        7.8340714542       12.0341755163
  H         3.5402354864       -1.3058193785       37.7396273584
  H         4.3231336526       -2.6232033915       36.8209294108
  C         5.7062363667       -1.3579374130       37.9122532887
  H         3.8832599553       -1.0390268395       18.6526184141
  H         2.8410279992       -1.5465364855       17.3271764658
  C         1.6915868169       -1.1712580507       19.0397443189
  H        16.8242665613        2.9038022444       24.4140525219
  H        15.9548569907        1.5798672688       23.8339932477
  C        17.6370039772        2.3636505617       22.5421484384
  S        12.1780936265        6.3224510645       11.5709276644
  C        11.5534005441        8.9055657444       11.0130336508
  H         5.4756271385       -1.9158665524       38.7384789727
  H         6.3900055073       -1.7751759014       37.2232471497
  H         6.0830738659       -0.3424006198       38.1685577020
  H         1.8834280295       -0.8984723202       20.0889648192
  H         1.3621843423       -2.2208494453       18.9249218079
  H         0.7584052293       -0.6365540615       18.7432198294
  H        18.0254054648        3.3212991165       22.2571407332
  H        17.4533771167        2.0116932362       21.6012878010
  H        18.5304293377        1.9302164950       23.0271001173
  C        12.3509190519        7.0111527536       10.0086097028
  N        12.2299773579        8.3821879640        9.9583668389
  O        11.0966636878       10.0528661293       11.1077040135
  S        12.8147721000        6.1641395896        8.5380466102
  C        12.3308232187        9.2247611844        8.7314327145
  H        12.6055427397       10.3063669832        8.8945674276
  H        13.1328643660        8.8390757481        8.1184808454
  C        10.9924742936        9.1290916738        7.9228277985
  H        10.1493362359        9.7045548327        8.2600331687
  H        11.2465770781        9.6105446022        7.0862560778
  H        10.7058236130        8.1885051359        7.5205259597
  H         4.3942572594        1.2302065306       12.7803661519
  C         3.9125626564        2.1587602458       12.7727288447
  H         4.7652540318        2.9457945799       12.8276939773
  C         3.1498689583        2.4442096201       11.4571525315
  C         3.1193664439        2.2656557120       13.9688011490
  C         4.1665539425        2.6784599621       10.3307663541
  H         2.4946832743        3.3218333874       11.3892386687
  H         2.4526067296        1.5369515510       11.3923859788
  H         2.2770512479        1.4674127712       14.2061222503
  H         2.6249973689        3.2425784891       14.3184127825
  H         3.8419986694        1.9140473716       14.8017730775
  C         5.0074060828        1.4812795668        9.8857421662
  H         3.4625816004        2.8309744332        9.4967847960
  H         4.8154692245        3.6113063463       10.3771839278
  C         5.5584326230        1.7898745782        8.4949613707
  H         4.3873875021        0.5106157336        9.8528263488
  H         5.7582113402        1.2117330332       10.6288029969
  C         6.8961976413        2.6240214722        8.6266240010
  H         4.8864080777        2.3294083142        7.7417091833
  H         5.8979315615        0.7998290706        7.9984592030
  C         8.1838803318        1.7769059149        9.2176573091
  H         7.1193442124        2.9433165969        7.6706597278
  H         6.6253929940        3.5423422444        9.2448547670
  C         9.3633909167        2.6551377753        9.3482910308
  H         8.4185772110        1.0452757114        8.4441496682
  H         8.0132658866        1.1881757589       10.1004772092
  C         8.9065818789        3.9402847259        9.9449995542
  C         9.6335497985        3.2947869470        7.9420706374
  C        10.5234613429        1.9176096675       10.0673112682
  C         9.0354919458        5.0249073108        9.0907344635
  C         8.3589059940        4.3635524241       11.1331122742
  C         9.5211619403        4.6520796830        7.8381472137
  C        10.1081248931        2.6732003020        6.8244161581
  H        10.1903747071        1.6553024783       11.0688654107
  H        10.7679960163        0.9624555312        9.4588848830
  C        11.8024372058        2.6600653537       10.2530254125
  S         8.4750624228        6.5623081129        9.6743616375
  C         8.0859662012        5.7431090923       11.1552044529
  H         8.3067317071        3.5779741455       11.9283529886
  C         9.7582166620        5.2681814700        6.5793702589
  H        10.3776902280        1.6749881457        6.9250570956
  C        10.1907240109        3.2272199784        5.6138262673
  H        11.3599919596        3.6928733773       10.4500539213
  H        12.4234443197        2.6687370219        9.3710243638
  C        12.8156848797        2.1092530660       11.3539194852
  C         7.4888422756        6.4735356070       12.3176464183
  C        10.0852486597        4.5508047043        5.4555320014
  H         9.5797235541        6.3709445818        6.6282582260
  C        10.6858292147        2.8838229428        4.4002174274
  H        13.6814261160        2.6193659562       11.0637014992
  H        13.0020641462        0.9990856384       11.0881247304
  C        12.4159171024        2.4958239938       12.7397851986
  C         7.5704770286        7.8380821471       12.5816033424
  C         7.1328027324        5.6457425319       13.4808006622
  C        10.4294614318        5.3179584137        4.1647800938
  C        10.6822946575        3.9669507315        3.5033783045
  S        10.9702630378        1.4143153819        3.6923219143
  H        12.2790068064        3.5737878273       12.6871735014
  H        11.4075264084        2.0371633669       12.9457567774
  C        13.2831219102        1.9413453919       13.9002383108
  N         8.0081946401        8.7916030701       11.7217905257
  C         7.2632019630        8.3339230324       13.8826152198
  C         6.8178715346        6.1050272395       14.8092161266
  H         6.9374383614        4.5901709884       13.2424586055
  C        11.7826762080        6.1201080638        4.2450938561
  C         9.2587211129        6.1180003729        3.5176657178
  C        11.0676573508        3.5676056282        2.2041678401
  C        11.2934403332        2.1839070237        2.1661085083
  H        13.8555174777        2.8504959128       14.2104233336
  H        14.0240863702        1.2689873035       13.5641231117
  C        12.4485174065        1.6426982450       15.1678971743
  S         8.0008675765       10.2450089235       12.4590289636
  N         7.4903185239        9.7012035000       13.9158953399
  C         6.8785774427        7.5407524965       15.0225238687
  H         6.4165728029        5.4560270556       15.5482383014
  H        11.7653467725        6.9871801052        4.8744493258
  H        12.1365744848        6.7107001267        3.3728913665
  C        12.9663017272        5.2416893125        4.6307192954
  H         9.1027692998        7.0948760949        4.0692167573
  H         9.5115511013        6.4463079245        2.4958652922
  C         7.9354397492        5.3562170097        3.2353043297
  H        11.2011683354        4.3057533778        1.4684002195
  C        11.6993720984        1.4811714283        0.8913977385
  H        11.5889891885        2.4186602098       15.2448188675
  H        11.7376016152        0.8784408708       15.2056689829
  C        13.3660065720        1.6054791144       16.4343915865
  C         6.7551737772        8.3015874470       16.2479429009
  H        12.8379094323        4.6986749032        5.5123082966
  H        13.1966829535        4.5287540560        3.9439064112
  C        14.2176243374        6.1674376257        4.9657126901
  H         7.5633550764        4.9929686232        4.1647599224
  H         8.1684973067        4.5204792140        2.5247521130
  C         6.9536763820        6.3507675735        2.5953851261
  C        11.7719702071        0.0392831827        0.7055554107
  C        11.8114844919        2.2139475768       -0.3937303561
  H        14.4070563996        1.8208599484       16.1736831605
  H        13.3856306976        0.5470611466       16.8083915725
  C        12.8892555905        2.5615922356       17.5874229396
  H         6.6812958750        9.3874250958       16.2412262911
  C         6.3894880289        7.8765631480       17.5482671932
  H        13.9892479920        6.7897513092        5.8521399559
  H        14.6258305215        6.6975132325        4.0945631894
  C        15.2437970199        5.1761265366        5.6060007896
  H         6.9534084536        7.2006322225        3.1537181577
  H         7.3278763157        6.3645629179        1.6180814188
  C         5.4459207935        5.8158728410        2.6620765953
  N        11.6132441540       -0.8849086848        1.7712149471
  C        12.0219498627       -0.5496244867       -0.4730450827
  C        12.0942503624        1.7055226505       -1.5507526332
  H        11.7287875388        3.2982719190       -0.4514574267
  H        12.0123397996        2.1065262931       18.0364980912
  H        12.6031386606        3.5269502081       17.1631014787
  H        13.5844556054        2.8307455608       18.3143819795
  S         6.2763766280        6.3169850079       18.1034822864
  C         6.2550449317        8.8658191888       18.6240185946
  H        15.0617227998        4.9028886063        6.5838429341
  H        15.0933533865        4.2072661111        5.0744820906
  C        16.7000369913        5.7184669739        5.5238603587
  H         5.0611736082        5.7633116093        3.6636204988
  H         5.5996148702        4.7289435370        2.3801369197
  C         4.4844689622        6.4146128775        1.7518623641
  S        11.5921650654       -2.3996870817        1.0830688495
  N        12.1013096827       -1.9373919455       -0.4500259495
  C        12.2459421250        0.1967218903       -1.6350685370
  H        12.1577234667        2.2299054867       -2.4721752544
  C         5.9753033666        6.9501701364       19.7231957135
  N         5.9241009486        8.2765483764       19.8130817846
  O         6.6041377372       10.0271465113       18.4189619329
  H        17.0937700964        5.6626601316        4.5168691477
  H        16.6498311606        6.8673426006        5.6350725951
  C        17.6495800019        4.9639382855        6.4229693233
  H         4.7902247661        6.3235927965        0.7087993350
  H         3.5742631202        5.9730625698        1.8665541860
  C         4.3561922051        7.9265743202        2.0866458953
  C        12.6147382380       -0.4575335385       -2.8888466410
  S         5.4797121911        6.0225809405       21.1396630504
  C         5.8809563025        9.0302109979       21.0072229428
  H        17.0755180614        4.6456270519        7.3255918979
  H        18.1388166918        4.0180569366        5.9877732271
  C        18.7329890225        5.8564111690        6.8927010698
  H         5.3071335548        8.4168408859        2.0107083056
  H         4.1232918575        7.9706168224        3.1508769110
  C         3.3451388210        8.6401225312        1.2285733374
  H        12.3901299377       -1.4693892338       -2.7399364790
  C        13.0886860568       -0.1248968859       -4.1324045456
  H         5.1064547812        8.6177094184       21.5768082670
  H         5.6818745811       10.1161784979       20.9581217092
  C         7.2852281807        9.0203104221       21.6353496380
  H        19.3019343189        5.3673671494        7.7009225411
  H        18.3195875016        6.8182902762        7.2977535959
  C        19.9058608842        6.1791191998        5.9396941445
  H         3.3784187883        8.3140279041        0.1930395933
  H         2.2894831910        8.4759163752        1.3594772488
  C         3.7449308184       10.2010211084        1.0777583949
  S        13.7497500708        1.4330860064       -4.5014592303
  C        13.3536489936       -1.1392317120       -5.1963515281
  H         7.7655475585        8.0993988470       21.3537511046
  H         7.5091073880        9.0893682913       22.7453052083
  H         7.8717845653        9.7706144792       21.2197570216
  H        19.3972667482        6.7516157178        5.0839165730
  H        20.5011658080        6.7966238564        6.5490371984
  H        20.5164964406        5.3031538093        5.6009393659
  H         3.6113462274       10.6008404726        2.0508433916
  H         4.7892706975       10.2562588329        0.7463184776
  H         3.1907179156       10.7125693597        0.3378185509
  C        14.2758213626        0.7547485820       -6.0839858509
  N        14.0611982612       -0.5417977890       -6.1748381787
  O        13.0044198939       -2.3364925939       -5.0298648641
  S        15.0870530290        1.5841592617       -7.4394653353
  C        14.2744265006       -1.3059946845       -7.3801504632
  H        14.5197857266       -2.3174381253       -7.0942224526
  H        15.1586630001       -0.9087072224       -7.9116325331
  C        13.1849163368       -1.0638478318       -8.4669635334
  H        13.3691437332       -1.8262631353       -9.2259418016
  H        13.1360218947       -0.0703565925       -8.7079087358
  H        12.3232474796       -1.5650587236       -7.9577633481
