352
 i =    21100, time =    10550.000, E =        96.7130565130
  H        10.5022864775        4.4669330641       32.1797606656
  C        10.5143844955        5.4991105959       32.5845179700
  H         9.5236934478        5.8545567146       32.7966396685
  C        11.1631871701        6.5026542891       31.5998997715
  C        11.1847020064        5.4126411186       33.8508508503
  C        11.3931936709        6.0549000916       30.1860141544
  H        10.6383569661        7.4287872534       31.6271274741
  H        12.0961921682        6.8789366323       31.9824536165
  H        12.1957692474        5.1464381805       33.7775684828
  H        11.1674472457        6.4609248254       34.2881494949
  H        10.6987320694        4.6601304503       34.5219697978
  C        10.1479100591        5.6051180938       29.3118460443
  H        12.0601393407        5.1830257123       30.2875620777
  H        11.9795238219        6.9096310161       29.7299486633
  C        10.5748521079        5.5950505290       27.8521471976
  H         9.7707757269        4.6249683227       29.6319016902
  H         9.3139629387        6.2500215447       29.3541347875
  C         9.6816882060        4.8481748460       26.8698722367
  H        11.4011273534        4.9078828996       27.8551450469
  H        10.8914573268        6.5363939735       27.4988219258
  C         8.5958685150        5.8009670291       26.2644644375
  H        10.2917626524        4.3579166923       26.0108301840
  H         9.2349506833        4.0954862989       27.4543589903
  C         7.4511211961        4.9735955693       25.6560927176
  H         8.1781456635        6.2843416792       27.2026657835
  H         9.1445328049        6.5076432835       25.6081092304
  C         7.0580134786        3.6821144614       26.3825464437
  C         7.8665088051        4.3186733368       24.4338303357
  C         6.2955465414        5.8692682207       25.3590636204
  C         7.2314079903        2.6148743287       25.5412311957
  C         6.5018557495        3.2719173834       27.5632249649
  C         7.7260030837        3.0020421623       24.3051267587
  C         8.3989124118        4.9122550523       23.2901622700
  H         6.5781289421        6.4088533836       24.4796308619
  H         6.1215675795        6.5928708833       26.0942550734
  C         4.9438330840        5.1412747648       24.8898872465
  S         6.7184645441        1.1275738534       26.1921478001
  C         6.3016611984        1.9157066983       27.5801806231
  H         6.4414244645        4.0216361933       28.3992983004
  C         8.1450495176        2.3916631264       23.1370545829
  H         8.4473349558        5.9415492214       23.4123307526
  C         8.6453118709        4.3168542136       22.1237722732
  H         5.0981295659        4.5082439834       23.9372255683
  H         4.6831332919        4.4429868764       25.6891680773
  C         3.7460350267        6.0824357247       24.7264872446
  C         5.8650155743        1.2368534025       28.8146236398
  C         8.5287062923        3.0034571783       21.9680008361
  H         8.1445188612        1.3174108551       23.1567521846
  C         8.9828440979        4.7382183988       20.8388400768
  H         3.0034862050        5.6551906878       24.0790535663
  H         4.1519983141        6.8631341992       24.1280222751
  C         3.0243997805        6.5202341491       25.9913875416
  C         5.8719464209       -0.1403403025       29.0889917391
  C         5.4187258450        2.0903185575       29.9703393943
  C         9.0479568335        2.3196640362       20.7513552028
  C         9.1702976291        3.6303911746       20.0078884761
  S         9.1440642399        6.1880425870       19.9985680617
  H         2.4020512342        7.4193574126       25.7444332902
  H         3.7896534710        6.9682779166       26.6197414733
  C         2.1534589288        5.4243777127       26.7359907660
  N         6.2743977271       -1.1605226667       28.2394714633
  C         5.5615773212       -0.6307988794       30.3642481538
  C         5.1420388202        1.6161719595       31.2528190310
  H         5.2079660958        3.1037170800       29.8520526052
  C         7.8736995749        1.4424230802       20.2140076695
  C        10.3860559608        1.4783021529       20.9028076000
  C         9.5045606074        3.9566502016       18.6874253198
  C         9.6155353687        5.3284593530       18.5276292818
  H         1.4477608742        4.8844247353       26.1531740881
  H         2.9461435290        4.7031737732       27.0644011153
  C         1.3735734709        6.0468291389       27.8752694881
  S         6.1453574117       -2.6021029351       28.9946865200
  N         5.4988904729       -2.0287607170       30.4042098477
  C         5.2189603366        0.1484869854       31.5189797429
  H         4.7915941241        2.3004564659       31.9950896430
  H         7.4656835462        0.7352858438       20.9903828117
  H         8.3042622519        0.7308376228       19.4720715564
  C         6.6712040837        2.1978173475       19.5790481385
  H        10.6799416996        0.8753389897       19.9951630413
  H        10.2905200866        0.7338437054       21.7117424303
  C        11.5785494739        2.2964181042       21.3843375333
  H         9.6827670263        3.2173522068       17.9937008711
  C         9.9856338186        6.0782991330       17.3059260450
  H         0.4024709015        6.3299547723       27.5146342457
  H         1.7217348774        6.9304017151       28.3039906436
  C         1.1933040514        5.0377999114       29.0652657319
  C         4.9343963484       -0.5136929569       32.7493089625
  H         6.9823818030        2.7203607526       18.6928809352
  H         6.4329155794        2.9322874897       20.3659432630
  C         5.6030462617        1.2426983548       19.1646213300
  H        11.3595240013        2.8809261613       22.3030217740
  H        11.8461332876        3.0780385575       20.6692988845
  C        12.8764366827        1.4333271581       21.5001090271
  C        10.0556439175        7.4580292701       17.1663619997
  C        10.3577518415        5.2331409048       16.0827732577
  H         0.5341099936        4.1935762441       28.8865533771
  H         2.1906042303        4.6290594209       29.3165543968
  C         0.6221656893        5.7448927148       30.3782166150
  H         5.0114951141       -1.6019281541       32.7650229892
  C         4.6378986741       -0.0087446527       33.9916573553
  H         5.2460587183        0.6719096694       20.0237591990
  H         6.1473015547        0.5458469383       18.4669150012
  C         4.5088182259        1.9933814867       18.3835148070
  H        12.7062224922        0.6728776782       22.1957397275
  H        13.0372737887        1.0034620286       20.5362461166
  C        14.1176624353        2.1680314947       21.8717662961
  N         9.7815095561        8.3630564391       18.1245848569
  C        10.4072470356        8.0307651269       15.9576448737
  C        10.5595443064        5.8107332135       14.8531805071
  H        10.1476224987        4.1519655171       16.0483845691
  H        -0.2088810889        6.4585991777       30.2186394471
  H         0.3164555402        4.9439651999       31.0801298605
  H         1.3324595907        6.3876002794       30.8835849653
  S         4.2636696210        1.6204476380       34.5070715597
  C         4.4912168326       -0.9664842877       35.0883018249
  H         4.3316378854        3.0539379282       18.7879315004
  H         4.7934545203        2.1127705247       17.2985946862
  C         3.1248115200        1.3773256235       18.4051499606
  H        14.1273285016        3.1703337463       21.3599461600
  H        14.8897276485        1.5365393871       21.4637512665
  C        14.3107546318        2.3185122592       23.3371972511
  S        10.1314228968        9.8131544011       17.5441667587
  N        10.7144949008        9.4401978000       16.0805223509
  C        10.6780055717        7.3183363935       14.7643080507
  H        10.6035462375        5.2144425818       13.9601669950
  C         3.9492974786        1.0046198219       36.0915621279
  N         4.0965851715       -0.2784391403       36.2228951576
  O         4.6750437604       -2.1376504621       34.9552905551
  H         2.4083143314        2.1730066226       18.1603670377
  H         2.7981891459        0.9860927362       19.4238070736
  C         2.9198337899        0.2229525943       17.4324679126
  H        13.4784804382        2.9924033089       23.5954371038
  H        14.0859231253        1.4983503057       23.9695387662
  C        15.5922433815        3.0240819106       23.8250744140
  C        10.9779793371        8.1256170099       13.5920980406
  S         3.6071813037        1.9914980324       37.4902055464
  C         4.0396991727       -1.1036825289       37.4239711797
  H         2.0596652378        0.4631798331       16.8422168157
  H         3.6791233399        0.2211325426       16.6670961730
  C         2.8480000439       -1.2013365225       18.1336542264
  H        15.4833202694        3.3789444086       24.7940036830
  H        15.8018583263        4.0078636641       23.3380141825
  C        16.8169267347        2.1337104075       23.7313323934
  H        10.7739923739        9.1788854812       13.5563786054
  C        11.4594637991        7.8329914254       12.3423901425
  H         3.4332236278       -0.6173064852       38.1844676315
  H         3.5197050567       -1.9985895276       37.1242521377
  C         5.3842380283       -1.2028340474       38.0914066475
  H         1.9091302284       -1.2824103638       18.7025682381
  H         3.5743256825       -1.3765705624       18.8766656993
  C         3.0032256099       -2.2645068902       17.0281742033
  H        17.3723793130        2.1485415391       24.6288145985
  H        16.5253580439        1.1347886974       23.6381710754
  C        17.7487357615        2.5301235763       22.5758685637
  S        11.9507492304        6.2776040709       11.8718165052
  C        11.4859001570        8.8437081637       11.2288117273
  H         5.9014738660       -0.2106669262       38.0743868977
  H         5.4085323953       -1.4898403616       39.1619595487
  H         6.0475645214       -1.9412448218       37.5807677225
  H         2.9331348109       -3.2605396957       17.4525260662
  H         3.9405141057       -2.1846370079       16.5254885391
  H         2.2086555979       -2.3144127556       16.3126473274
  H        18.4782576582        1.7459289278       22.3908173663
  H        18.1556600144        3.4677215477       22.7780194527
  H        17.1130143312        2.6152365113       21.7006165155
  C        12.3333749235        6.9648442095       10.2432514640
  N        12.0995750338        8.2765128996       10.1771183715
  O        11.1374997146       10.0240767785       11.2876094954
  S        12.6239543171        6.1002625314        8.7663336490
  C        12.2956848851        9.0471039034        8.9610085706
  H        12.8496962914        9.9595045165        9.2113201802
  H        13.0625457974        8.5959260082        8.2681469185
  C        11.0797853439        9.0778140752        8.1669691447
  H        10.2619610203        8.8030761272        8.8370396635
  H        10.8195203588       10.1644426955        8.0719750295
  H        11.2119463342        8.4545215287        7.2609638696
  H         5.1843104364        1.3320738000       12.7958019058
  C         4.6365364185        2.2399063895       13.0116080894
  H         5.3928852048        3.0285506058       13.0013765046
  C         3.6346554281        2.3390771597       11.8981952141
  C         4.0089936552        2.1570945190       14.4528878287
  C         4.3469949943        2.6729283889       10.6540201852
  H         3.0101417529        3.2234678577       12.1042142626
  H         3.1145044393        1.4155815498       12.0098145686
  H         3.7781837028        1.0792895817       14.6663599660
  H         3.2019446930        2.8192559061       14.6245538317
  H         4.7582912448        2.2809903723       15.2286221955
  C         4.7847293806        1.3715406139        9.9545346194
  H         3.6679658074        3.2871886148       10.1585682504
  H         5.2177137921        3.2794754592       10.9024294948
  C         5.3726511930        1.5235894780        8.5743691831
  H         3.9540729770        0.7489874124        9.7329511916
  H         5.4939943916        0.7567858748       10.5535316621
  C         6.6689345874        2.3452476704        8.5124003227
  H         4.5934567057        2.0298440382        7.9510744469
  H         5.5199025711        0.5663250664        8.0325510555
  C         7.9203439175        1.7393524297        9.1100246587
  H         6.7606277134        2.6263568611        7.4551245002
  H         6.3945842987        3.3022452563        9.0037698841
  C         9.1295562814        2.7086730439        9.3531236284
  H         8.2668352395        0.8232605154        8.5845927393
  H         7.5850234802        1.3210551299       10.0487550379
  C         8.7090145882        4.0107417966       10.0287810250
  C         9.5350301352        3.4202453521        8.0826531787
  C        10.2739066591        2.0572517761       10.0917657414
  C         8.9416055678        5.1089088785        9.2608683359
  C         8.1273509649        4.3403576020       11.2224009370
  C         9.4792305081        4.7805307606        7.9882106954
  C         9.9860633741        2.8736123907        6.8718304369
  H         9.8115681573        1.5130346034       10.8993739773
  H        10.7416349898        1.3431124265        9.4916142676
  C        11.3354850657        3.0247918205       10.4898830853
  S         8.5683029276        6.6339387329       10.0674433970
  C         8.0670239882        5.6902721107       11.4615494335
  H         7.7926020200        3.6115044542       11.9310964760
  C         9.9222688825        5.4937730610        6.8804919784
  H        10.1906255998        1.8002333099        6.8980824446
  C        10.3122113241        3.5552765101        5.6945442683
  H        10.9558209114        3.7656165647       11.1832556027
  H        11.7163324264        3.5332496782        9.6593483851
  C        12.5315748655        2.3986400922       11.2337266775
  C         7.6144570380        6.3314352141       12.7485493574
  C        10.3055007176        4.8720548550        5.6847039842
  H         9.9924382003        6.5814288920        6.9260729236
  C        10.8071362911        3.1388583697        4.5005391255
  H        13.3634570299        3.0934694045       11.1299366197
  H        12.9077895098        1.5084834898       10.7079987683
  C        12.1300902291        2.1133402504       12.7033658027
  C         7.6963362982        7.7301287290       13.0358455802
  C         7.1653550312        5.4894850851       13.9057337311
  C        10.7658798561        5.5722026550        4.4415873893
  C        10.9895406572        4.2253915313        3.6547684998
  S        11.0108919823        1.6313742168        3.6818802836
  H        11.6068525221        2.9851471140       13.1133724569
  H        11.4692991521        1.1863255989       12.8406687714
  C        13.3734359318        1.9895443905       13.5985330444
  N         8.1409998755        8.6456004187       12.1489633813
  C         7.4310564720        8.3155810803       14.2278980019
  C         6.8649404517        6.0381046552       15.1514952754
  H         6.9247939884        4.4672723284       13.7625319618
  C        12.1242448163        6.2820841100        4.6607128081
  C         9.7092171521        6.5391185186        3.8086937632
  C        11.2805229098        3.8832789317        2.3499239981
  C        11.4551545403        2.5263617990        2.2054643532
  H        13.9628366928        2.9648028603       13.7258071326
  H        14.0493218949        1.2801560277       13.0940197991
  C        13.1011771914        1.2839825454       14.9193768944
  S         7.9580668660       10.1150442837       12.7729767788
  N         7.4180855159        9.7173297070       14.2635649565
  C         7.0026754023        7.5189821988       15.4047714853
  H         6.6202051547        5.3197535848       15.9324101468
  H        11.9411990287        7.0165169757        5.4423406332
  H        12.5105924469        6.8721680107        3.8121081112
  C        13.1494845328        5.3326793360        5.1376524047
  H         9.2969343181        7.3146849401        4.4757425847
  H        10.1419810216        7.3124038770        3.1810945089
  C         8.5107259127        5.7242105933        3.1446982063
  H        11.2581724141        4.6911114677        1.6222975680
  C        11.8419006768        1.7445366843        1.0061554219
  H        12.7320557094        0.3140076771       14.6317168655
  H        14.0457466670        1.0737568894       15.3356194699
  C        12.3915560125        2.2227733778       15.9230659957
  C         6.7961431910        8.2033349110       16.7243299991
  H        13.0470124597        4.8572796086        6.0045273603
  H        13.4693344384        4.6970919208        4.3183677903
  C        14.3642792979        6.2680065177        5.4694599546
  H         8.1546275676        4.9060175660        3.7262118669
  H         8.9676971426        5.4399794020        2.1821429909
  C         7.3389621090        6.6230183583        2.9016803798
  C        11.9041625801        0.3421073417        0.8935701526
  C        12.1415925506        2.5429342081       -0.2190560394
  H        11.3315425679        2.4224765582       15.5424502325
  H        12.9226554101        3.1926267253       16.0151157222
  C        12.1794145331        1.7196409459       17.3330652692
  H         7.2466267512        9.1537302042       16.6949188040
  C         6.4120340423        7.7289315278       18.0032715601
  H        14.1502172546        6.9943556402        6.2519656565
  H        14.5860950388        6.8719200310        4.6599657915
  C        15.7050409168        5.6077591253        5.8096375759
  H         7.3167431172        7.3885111844        3.7334980759
  H         7.5584918786        7.2614776052        2.0383201122
  C         6.0039510682        5.8760159204        2.7578929026
  N        11.6874012875       -0.5779687736        1.8610561766
  C        12.0728077543       -0.3079268213       -0.3191579784
  C        12.4470821395        1.8273942047       -1.4182414417
  H        12.1187796423        3.6070679129       -0.1042657951
  H        11.3937503903        0.8929137792       17.2313404324
  H        11.7703354248        2.4566167701       17.9972434568
  H        13.0671412529        1.1988006766       17.7634752138
  S         5.9472833123        6.1474717863       18.4107459073
  C         6.4732274428        8.6611598828       19.0903562650
  H        16.0618682802        4.8831759251        5.0726703954
  H        16.5310260057        6.3208264961        5.7822651713
  C        15.6774850489        4.9999380888        7.2082518537
  H         5.7666631122        5.5443742797        3.7633109740
  H         6.2332093693        4.8978772932        2.2712001403
  C         4.8150535112        6.6119048236        2.1281233267
  S        11.6694621478       -2.0757109014        1.3126478134
  N        12.0993826947       -1.7429718515       -0.2104289514
  C        12.4095749493        0.3662666432       -1.4804140848
  H        12.5481387697        2.3723673797       -2.3692867476
  C         5.8759775600        6.7147014490       20.0352360994
  N         6.0625207980        8.0790233922       20.1948510677
  O         6.6632487430        9.8506617786       18.9610532106
  H        15.6205266825        5.8450258076        7.8659025396
  H        14.8953239207        4.3488831013        7.4352531472
  C        17.0740605447        4.3331070072        7.4940386624
  H         4.9347538795        6.5087384104        1.0145053558
  H         3.9061127425        6.1386053747        2.4288971522
  C         4.7393644994        8.0373712636        2.5532491192
  C        12.6530318947       -0.3824828141       -2.6705686990
  S         5.5763501980        5.6319313849       21.3657885671
  C         5.9170118365        8.7793565187       21.5125963352
  H        17.0815322518        3.7981427063        8.4148011056
  H        17.2930180989        3.5874416847        6.6514788199
  C        18.2644221077        5.3515129479        7.5662303899
  H         5.5627285683        8.6523527109        2.0639232091
  H         5.0016448652        8.2521830111        3.6578979779
  C         3.5565050731        8.8500473039        1.9761529745
  H        12.4524813364       -1.3850146577       -2.6439663033
  C        13.1875420495       -0.1414974142       -3.9153904374
  H         5.0822148627        8.3434614037       22.0607464227
  H         5.7720485273        9.8437009267       21.3502196646
  C         7.2306101021        8.6407036312       22.2306408820
  H        18.6198207408        5.5627998354        8.5730662186
  H        17.9555137758        6.3527289017        7.2019343256
  C        19.4706179771        4.9076288640        6.6890493346
  H         3.4914655666        8.5069334948        0.9497910344
  H         2.6132454210        8.6401702112        2.5199512973
  C         3.6673528365       10.3900146648        1.9435073248
  S        13.7702375669        1.3776705548       -4.4972410788
  C        13.2800725737       -1.2809519031       -4.8720185211
  H         7.1440514340        8.0486614322       23.1207399060
  H         7.7462998934        9.6367909039       22.3847062060
  H         7.8892208497        8.0711569155       21.6279348384
  H        19.1271782715        4.1198567442        6.0013765988
  H        19.7851064830        5.7806409365        6.1496230356
  H        20.3350138648        4.4884425633        7.2929669664
  H         4.2186910734       10.8053267994        2.7473514283
  H         4.1260834946       10.6765978241        0.9645504819
  H         2.6839855935       10.8901848936        1.8891433143
  C        14.0813602311        0.5505580656       -6.0032408055
  N        13.8443451209       -0.8002874491       -6.0091472536
  O        12.6054676730       -2.3241989164       -4.7579789493
  S        14.7734901972        1.3614514908       -7.3377291441
  C        13.9192690633       -1.5603483314       -7.2049944825
  H        13.8543550276       -2.6159477906       -6.9597406470
  H        14.8708995758       -1.4809876156       -7.7722564728
  C        12.6493552826       -1.1660622265       -8.0593644209
  H        12.9248318929       -0.6510191394       -8.9244050817
  H        11.7864494622       -0.6864720253       -7.5299167295
  H        12.2128704630       -2.0664137930       -8.3998948550
