352
 i =    64600, time =    32300.000, E =        99.8355755257
  H        11.8054584981        5.3851568758       32.1232563920
  C        10.8469140061        5.5215365985       32.5221045964
  H        10.5860410802        4.4774094536       32.7797039084
  C         9.9553778372        6.0391707231       31.4517311992
  C        10.9242065528        6.3212419468       33.7717691654
  C        10.1030781323        5.3960782820       30.0282064368
  H         8.9019881003        5.8501649128       31.7386288333
  H         9.9816428266        7.1325794222       31.4031475366
  H        11.3652639788        7.3390057441       33.6560815192
  H         9.8508630229        6.5942593946       33.9018776545
  H        11.3889228498        5.7533198997       34.5848320601
  C         9.9846359661        6.3865421306       28.8132092937
  H         9.4233267343        4.6033318369       30.0103908228
  H        11.0969802491        4.8644324712       30.0350664978
  C        10.5949283773        5.9666398716       27.4903373636
  H         9.0010119209        6.7898898970       28.7751296020
  H        10.4512622819        7.3384108331       29.0861767401
  C         9.4908955973        5.3013275596       26.7348983318
  H        11.4732132500        5.2781218391       27.6326670201
  H        10.8755498309        6.8479138982       26.9895239872
  C         8.3859707657        6.2049837546       26.1369472061
  H        10.0099241037        4.8336603161       25.9014339062
  H         9.1396947762        4.5751159678       27.4161438296
  C         7.3114127765        5.3706388019       25.3070158156
  H         7.7750312726        6.6692774060       26.8960706160
  H         8.7880160682        6.9203564000       25.4892732768
  C         6.8512619903        4.1201692158       26.0112621546
  C         7.7565038897        4.6318952150       24.1213462355
  C         6.1036348931        6.2685649721       24.8502012879
  C         7.0269230112        2.9722227569       25.2538326285
  C         6.2825665085        3.7217539039       27.2260054794
  C         7.5523308008        3.3149947340       24.0150843867
  C         8.2611932658        5.2523237042       23.0241821588
  H         6.3942599317        6.8413295049       24.0050052080
  H         5.8298760696        7.0525124021       25.5584101496
  C         4.8236925723        5.4766743491       24.3418745339
  S         6.6261213528        1.4173440907       25.9864693340
  C         6.2131665026        2.3482280269       27.3721480020
  H         6.2112494685        4.5171670838       27.9291306273
  C         7.9305120210        2.6391538882       22.8961791970
  H         8.3866517247        6.3607235676       22.9731250464
  C         8.6325311376        4.5586999223       21.8891390401
  H         5.1680310239        5.1683405682       23.3462830542
  H         4.7328430725        4.5128677055       24.7576561083
  C         3.5493028050        6.3145485933       24.3941628343
  C         5.8886405024        1.6890367207       28.7010600710
  C         8.4826153791        3.2521569995       21.7636180072
  H         7.6702234028        1.5768412022       22.7646285747
  C         8.9764852492        4.9788848462       20.6448295620
  H         2.8062448689        5.9386663870       23.6714274023
  H         3.6717739143        7.2699091207       23.9274904939
  C         2.9593564493        6.3528906486       25.8173965257
  C         5.9345910523        0.2488720322       28.8912363470
  C         5.3289679424        2.4832511148       29.8394064231
  C         8.8334995794        2.5589881464       20.4620635374
  C         9.0357074490        3.8979571074       19.7756986140
  S         9.4402803925        6.4385483885       19.9197043010
  H         2.4960435211        7.3404234943       25.8032589644
  H         3.7459863895        6.4835084250       26.5697847401
  C         2.1057634139        5.1576767813       26.2746160692
  N         6.3063444026       -0.6762473483       27.9395954619
  C         5.7692635980       -0.3061526645       30.1237397588
  C         5.1387061872        1.8737472510       31.0874460895
  H         5.2598143193        3.5688750436       29.6679458887
  C         7.5908420119        1.7211988337       19.9225213407
  C        10.1374022454        1.7597787383       20.5308545099
  C         9.4828046471        4.2846308863       18.5429579650
  C         9.6271002066        5.6488950876       18.4386924739
  H         1.3766067321        5.0888091598       25.4409817910
  H         2.6265803568        4.1670845477       26.1917756305
  C         1.3109853323        5.1460758111       27.5586796764
  S         6.6591812671       -2.0529557729       28.7372752772
  N         6.2227591572       -1.6326028952       30.2262843695
  C         5.3484294190        0.4062636107       31.2644484658
  H         4.8587916056        2.5357678363       31.8957307676
  H         7.3638880745        0.9572252558       20.6885481124
  H         7.9644442175        1.0836090520       19.1881780759
  C         6.3806100598        2.4401326381       19.4567270006
  H        10.4325329600        1.4707178485       19.5245476345
  H         9.8568844268        0.8341806800       21.0975290332
  C        11.3451611794        2.4060636793       21.2222920827
  H         9.6277820673        3.5176045756       17.8326922259
  C         9.8690249079        6.5068188060       17.1834076491
  H         0.7518443003        4.2498054570       27.7831901094
  H         0.5526878033        5.9526006324       27.5534437525
  C         2.1876343271        5.5022890583       28.7459256793
  C         5.1534516279       -0.2658322220       32.5330763822
  H         6.5314718537        3.1780269625       18.6710794021
  H         6.0013924791        2.9720521974       20.3196534814
  C         5.3059704637        1.5498332101       18.8347400643
  H        11.1336051563        2.8455516176       22.2151412546
  H        11.6974636729        3.2259247972       20.6374522173
  C        12.5078105874        1.4440047054       21.3261310870
  C         9.8772714604        7.9607426971       17.1472577728
  C        10.2575243952        5.8047375735       15.9161552166
  H         2.8943984073        4.6812302765       28.8038291046
  H         2.7192859684        6.4429133700       28.7133531221
  C         1.4156076614        5.6515527356       30.0378311879
  H         5.3809890068       -1.3229531646       32.4428979850
  C         4.7820596723        0.1099255779       33.8327459488
  H         4.6961027895        0.9787683875       19.5627969049
  H         5.7094409628        0.8244456387       18.1339103651
  C         4.3712156314        2.4573234469       18.0166717651
  H        12.2137294842        0.7382704709       22.0865696413
  H        12.5311862835        0.8039384057       20.4970391289
  C        13.8533160580        2.0705800199       21.5819246357
  N         9.7796868640        8.8310568939       18.2167265077
  C        10.1302973410        8.6590658860       15.9358209012
  C        10.5127693918        6.5442066417       14.7523664190
  H        10.3229316913        4.7328701925       15.9175431886
  H         0.8581425839        4.7319566750       30.3460992369
  H         2.0311704475        5.9598123072       30.9021708158
  H         0.7453253266        6.5450812140       30.0186836230
  S         4.4777419229        1.6644016142       34.4509237393
  C         4.8791388502       -0.9439909613       34.8871023297
  H         4.0894975545        3.3301246778       18.6627617671
  H         4.8990956759        2.8555822677       17.1223489990
  C         2.9772714075        1.7998977039       17.8149099678
  H        13.8918042883        2.8421078755       20.8470993744
  H        14.6360178141        1.3344850531       21.3157022809
  C        14.0081243033        2.5838348845       22.9772206080
  S         9.8552105530       10.4213929567       17.6045756443
  N        10.1411844265       10.0661489401       16.0468326866
  C        10.4093116593        8.0106132390       14.6782922131
  H        10.6111059980        6.0024146443       13.8467113997
  C         4.3584947974        0.9144660987       36.0653800339
  N         4.5641898880       -0.4291355237       36.0859370457
  O         5.1539670454       -2.1115220469       34.5850888548
  H         2.5104857118        2.4551388233       17.1551208927
  H         2.3233237048        1.7210314379       18.6734373499
  C         3.0564444657        0.5137323438       17.0644220375
  H        13.1050250498        3.0786840946       23.4235725738
  H        14.1392306490        1.7439589551       23.6564077868
  C        15.1752249533        3.5639855461       23.1764505491
  C        10.7159131315        8.8287040829       13.5185986499
  S         3.9368616755        1.7940289259       37.5761740954
  C         4.6762209153       -1.1745256300       37.3906187112
  H         2.3200323930        0.5750078119       16.2887974102
  H         3.9857903140        0.3255854373       16.4820351270
  C         2.6559569641       -0.7114628561       17.9084268786
  H        15.3173776871        3.6574766078       24.1982493227
  H        14.8477223534        4.6230272210       22.9401676883
  C        16.4509602773        3.2024707457       22.4916427605
  H        10.2664905118        9.8584297939       13.5902109927
  C        11.1764846906        8.4475723491       12.2994896144
  H         4.0239120275       -0.8288013678       38.1925055006
  H         4.4137588715       -2.2387570101       37.2382455959
  C         6.0902963108       -1.2592560352       37.9402295677
  H         2.8365491824       -0.6415762764       18.9686004177
  H         3.0792654071       -1.6673191108       17.5155588756
  C         1.2392349487       -1.1692829652       17.7597752441
  H        16.1884694169        2.9525418543       21.5182979136
  H        17.1481705217        4.0394760808       22.4945620860
  C        17.1467413567        2.0361248026       23.2410576304
  S        11.7854736839        6.9211683230       11.7426325821
  C        11.2364225103        9.5061615341       11.2450392269
  H         6.6214430665       -0.3547069669       37.8383556581
  H         6.2110094667       -1.6621431044       38.9270347571
  H         6.7555088114       -1.9288871845       37.3625334702
  H         1.0694326366       -2.0217319509       18.4516242100
  H         1.0877090568       -1.6495708539       16.7775569395
  H         0.5522709134       -0.3716207764       17.8029534729
  H        16.4134723127        1.5006462256       23.7924098219
  H        17.9186480204        2.4798348487       23.9228222143
  H        17.6766996109        1.3108135619       22.5763003979
  C        12.0453208518        7.7506074475       10.1439696860
  N        11.8365865377        9.0963859800       10.1106643398
  O        11.0912907365       10.6738252688       11.6175891368
  S        12.7130128768        7.0978497275        8.6858063396
  C        12.0769103629       10.0040050807        8.9775847642
  H        12.3740273567       10.9620116321        9.4733250654
  H        12.8045499865        9.7042422203        8.2655366284
  C        10.8585190779       10.2554481558        8.2252228910
  H        11.0075560633       10.5673699892        7.1785920822
  H        10.2335939757        9.3306007700        8.2769160183
  H        10.4112183418       11.0682974912        8.7298775143
  H         4.0652502213        1.2343647960       12.3959669258
  C         3.5321772039        2.1567604479       12.3156112462
  H         4.3151911440        2.9188362247       12.5310278991
  C         2.7089755129        2.4393050845       11.0988665148
  C         2.7414595625        2.1929790726       13.5938203655
  C         3.6384676351        2.6623532186        9.9472834956
  H         1.9680189988        3.1547701477       11.1772051561
  H         2.0744977087        1.6048218434       10.7542534587
  H         3.3649661117        2.3386658993       14.5003524308
  H         1.9417783660        1.4538510330       13.7109551038
  H         2.2579511137        3.1791378572       13.6144809067
  C         4.6729217364        1.5613575711        9.6795730129
  H         2.8900354710        2.8109915437        9.1707823305
  H         4.0906365580        3.5507330163        9.9678055344
  C         5.4676329332        1.7072676289        8.3679872077
  H         4.0643374710        0.6766740166        9.6861883050
  H         5.3913780009        1.3579125230       10.4918389953
  C         6.4934893358        2.7995998826        8.5181708831
  H         4.6582686213        1.9174405269        7.6710204749
  H         5.7877446482        0.7674415504        7.9279513617
  C         7.8940010770        2.2307133730        9.0035706071
  H         6.5476997139        3.3231023056        7.5632664506
  H         6.2364070277        3.5562868989        9.2653160895
  C         8.9824547443        3.2890059679        9.1682644517
  H         8.0509082267        1.4255592131        8.3200054759
  H         7.8024029272        1.6858683298        9.9570473803
  C         8.5471999403        4.6388041372        9.8070481747
  C         9.4015580572        3.9494694172        7.9180433718
  C        10.1855252725        2.6542803378        9.9408782396
  C         8.6661061707        5.7074434662        8.9347352048
  C         8.0974461938        5.0925688257       11.0569939522
  C         9.2460522119        5.3033559622        7.7779529714
  C        10.0253421825        3.3363951135        6.7860836677
  H         9.8144077689        2.2354015820       10.9063990228
  H        10.6216389222        1.8663088706        9.3852645967
  C        11.3888778958        3.6288980650       10.1869947562
  S         8.2045835131        7.2405711088        9.6192905691
  C         7.9283510862        6.4489612366       11.1417278904
  H         7.8894135495        4.4044019401       11.8144328780
  C         9.7446342836        6.0046981881        6.7165243161
  H        10.0440879542        2.2782189359        6.8092211490
  C        10.3424124043        3.9934236050        5.6181780582
  H        11.0943810320        4.6218162227       10.4898217390
  H        11.9510042644        3.7184851500        9.2558507523
  C        12.3838059400        2.9603062370       11.2370519593
  C         7.4664426919        7.1442062332       12.3464186840
  C        10.3203358430        5.3341449344        5.5689507940
  H         9.8352416947        7.0469615396        6.7938403186
  C        10.8156468056        3.5157613584        4.4131585913
  H        13.4062656431        3.4135945696       11.3257183982
  H        12.5946791655        2.0009002988       10.8832520056
  C        11.7807535926        2.8752066301       12.6304306827
  C         7.4348315997        8.5321775264       12.5533122588
  C         7.0686082236        6.3167389503       13.4866396882
  C        10.7383954321        5.9895475040        4.2965041388
  C        10.9696423004        4.5994754244        3.6453514069
  S        11.1071202554        1.9948018790        3.6694096464
  H        11.2948946940        3.8426926912       12.7928395012
  H        11.0788372180        2.1004680167       12.6961228234
  C        12.9379821927        2.6585043324       13.6867132350
  N         7.5868772719        9.5676281102       11.5856295934
  C         7.2071277824        9.0865919887       13.8096916719
  C         6.9470528061        6.7974295606       14.7786539124
  H         6.7401699881        5.3067064646       13.2750020318
  C        12.2038375731        6.6281006258        4.3474864395
  C         9.6476936211        6.7546798071        3.5465692650
  C        11.4203487872        4.2392472201        2.3165529394
  C        11.5056086730        2.8730269068        2.2540967852
  H        13.4940490158        3.5562255329       13.8163190790
  H        13.4863640992        1.7634395868       13.4055314309
  C        12.3529627980        2.4549153526       15.0660175428
  S         7.5234479860       11.0144119804       12.3773131259
  N         7.1027586205       10.4991464375       13.8665241523
  C         7.0459216078        8.2872755127       14.9782817156
  H         6.6004720591        6.1024452556       15.4704588944
  H        12.0857862377        7.6037641734        4.8871868955
  H        12.6050864638        6.8666977911        3.4543646024
  C        13.2448081303        5.8171109386        5.1015694003
  H         9.4879378188        7.6504214538        4.1485042308
  H        10.0202084058        7.0119406447        2.5708774555
  C         8.3171007805        6.0369722605        3.1394939550
  H        11.7875251724        5.0059043220        1.5967555609
  C        11.7105700829        2.1028075277        0.9382016161
  H        11.4332230918        2.9821752883       15.3650490788
  H        11.9846397037        1.4118495620       15.1480857300
  C        13.4065241716        2.6173558943       16.1709188956
  C         6.8234672599        8.8195741718       16.3062734566
  H        12.8243533102        5.6189130083        6.0898426805
  H        13.5161300843        4.9167974406        4.5380204943
  C        14.4950996820        6.6227081871        5.1897676859
  H         8.1093049115        5.4013910333        4.0253268643
  H         8.6257986755        5.4383121317        2.2853321606
  C         7.1721514521        6.8914364503        2.7534012921
  C        11.8688420621        0.7312877726        0.8102892015
  C        11.8501349402        2.8617906623       -0.3574176219
  H        14.0362937956        3.5426089988       15.9808611299
  H        13.9607116485        1.6875128481       16.2410692610
  C        12.6720483901        2.8268730843       17.5283050997
  H         7.0487343204        9.8620181276       16.3534264241
  C         6.6299005962        8.1807178220       17.5007919231
  H        14.2852181185        7.6680043287        5.4033011828
  H        15.1301819942        6.6439349935        4.3177685488
  C        15.4048821468        5.9624887448        6.2260548902
  H         6.9699171321        7.6364854077        3.5169879367
  H         7.4773123858        7.5943927533        1.9586411554
  C         5.9298942419        6.0854672934        2.3349442433
  N        11.6950671821       -0.2572898025        1.7816689478
  C        12.1196625607        0.0965950437       -0.4197928742
  C        12.1590912949        2.2100296800       -1.5782587227
  H        11.7974923879        3.9389675741       -0.3779507293
  H        12.1116438278        3.7904572163       17.4449511017
  H        13.2732378100        2.7645070480       18.3906594171
  H        12.0459679707        1.9877965067       17.6916807234
  S         6.5265256623        6.4921439871       17.8944348185
  C         6.4214551834        9.0849252771       18.6297143121
  H        15.3400275515        6.5623123581        7.2098743500
  H        14.9958806448        5.0280867785        6.5686555564
  C        16.9342691959        6.1317593143        5.8527745013
  H         5.4574493819        5.7419357475        3.2438921357
  H         6.3324307763        5.3632978733        1.6473208267
  C         4.8613407016        6.9740419326        1.6808301374
  S        11.6403575290       -1.7016699736        1.1510408126
  N        12.0970814191       -1.3038880840       -0.3030988952
  C        12.3136334809        0.7711623706       -1.6437535832
  H        12.2747666210        2.8185953884       -2.4539200156
  C         6.1164564236        7.0153617154       19.4847729289
  N         6.0638031623        8.3653860838       19.6996584763
  O         6.4843961409       10.2982274379       18.5484996992
  H        17.1460495620        5.3081001743        5.1474301153
  H        17.1411430183        7.1099021758        5.3163778437
  C        17.7957440807        5.9055726756        7.1043919970
  H         5.1084669457        7.2189653785        0.6775441496
  H         3.9199992060        6.4214937123        1.6787097577
  C         4.6938223674        8.2693972816        2.4798294750
  C        12.4753670303       -0.0188054652       -2.8525833239
  S         5.5588547378        5.8841115057       20.7036766338
  C         5.8678347642        9.0645151855       20.9456793892
  H        17.6232573017        6.7361624192        7.7913516803
  H        17.4970552532        4.9283698850        7.5696466743
  C        19.2547853224        5.9892526709        6.7013465100
  H         5.5677964217        8.9079398951        2.1950664847
  H         4.7442799717        8.1113515956        3.5401086584
  C         3.4474333037        9.0586584003        2.0750234322
  H        12.1895110760       -0.9938040591       -2.7830296021
  C        13.0516444182        0.3345644787       -4.0546099633
  H         5.3090191191        8.4533972855       21.6983729444
  H         5.3406226367        9.9964062617       20.9247219748
  C         7.1840096647        9.3604680103       21.5134420924
  H        19.9214838933        6.1286119793        7.5112036399
  H        19.4278061376        6.9976415018        6.1674821451
  C        19.8263227710        4.9923459102        5.7277632039
  H         2.6123134883        8.4265897238        2.0400465445
  H         3.1952603109        9.7713377752        2.8630934959
  C         3.4353527182        9.8202036492        0.7327144041
  S        13.6957836244        1.8710414513       -4.4352828216
  C        13.0458344437       -0.6843409020       -5.1373992513
  H         7.9750897738        8.9176759564       20.9980517278
  H         7.0903866711        8.9438942928       22.5515700058
  H         7.3987464808       10.4411284216       21.6156414536
  H        20.8258960856        5.3461506009        5.5683067683
  H        19.7509588235        3.9638656425        6.0077386060
  H        19.3853751841        5.1487777661        4.6514271935
  H         4.3417385041       10.4708022799        0.5719897612
  H         3.5610622450        9.1290458080       -0.0803160653
  H         2.5223955105       10.4202234456        0.5140553223
  C        14.1330006716        1.0862464828       -6.0228005333
  N        13.7454228465       -0.1865474424       -6.1369982718
  O        12.4976812183       -1.7779678571       -5.0394238107
  S        14.8769062607        1.8735448616       -7.4494571154
  C        13.8858900783       -0.9571844369       -7.3481627344
  H        13.8471737152       -2.0325442817       -7.1495266537
  H        14.8092935260       -0.8416800173       -7.8019929876
  C        12.8500829574       -0.5345378657       -8.3549493442
  H        12.3680246342        0.4882455847       -8.1132369289
  H        12.0357155202       -1.1470793050       -8.5539746143
  H        13.4169392036       -0.5156538063       -9.3068456687
