352
 i =     7200, time =     3600.000, E =       163.9957684895
  H        11.8090600083        5.8767859686       31.8998510714
  C        10.8962204996        5.4484999821       32.2326550970
  H        11.0421864389        4.4321519786       32.2036482332
  C         9.8067425298        6.0227071142       31.2930178540
  C        10.6363596860        5.9102850068       33.6890466495
  C         9.8223535722        5.3495678452       29.8885907594
  H         8.7887356219        5.9862501031       31.7190718360
  H        10.0333644809        7.0892397037       31.3311575867
  H        10.5713736929        6.9796118339       33.8474111988
  H         9.7540748159        5.3675920137       34.0225625750
  H        11.5374740502        5.6871888135       34.2239525223
  C        10.1391631011        6.4105804507       28.8203628500
  H         8.8381806406        4.8899149828       29.5697995563
  H        10.4980803123        4.4817948549       29.9456553324
  C        10.6931083980        5.7848843651       27.4955304576
  H         9.2816465335        6.9734475916       28.7201620313
  H        10.9013620429        7.0903576682       29.1965528054
  C         9.6697138698        4.9565376973       26.6024580727
  H        11.5723601369        5.2615343403       27.8150867327
  H        11.0754277974        6.5685505625       26.8202350098
  C         8.6559091761        5.9250816305       26.0707715285
  H        10.1629124937        4.3430769708       25.7883198352
  H         9.2268926479        4.1599747013       27.2662045640
  C         7.5718630942        5.2785207570       25.2329888943
  H         8.0171820333        6.3443329014       26.8775325311
  H         9.1456642688        6.7143041596       25.4652114312
  C         7.2232726586        3.9029994067       25.9051747984
  C         8.0838270456        4.5631970151       23.9699821759
  C         6.2058857814        6.1336298453       25.1329256644
  C         7.5649758463        2.8148974214       25.1401992949
  C         6.4934332712        3.5015534440       27.0460778929
  C         8.0338039415        3.2023990625       23.8768861901
  C         8.5090215112        5.1388866479       22.7843915030
  H         6.4470645347        7.1391666680       24.6930950264
  H         5.8001343025        6.1871096239       26.1818884088
  C         5.1654175680        5.4353777965       24.3428535229
  S         7.2370343316        1.2417110130       25.8822537877
  C         6.5521068149        2.1468242925       27.2673151158
  H         6.0608971966        4.2881492995       27.6726679639
  C         8.5258467135        2.4880375424       22.8477220043
  H         8.3465569058        6.2080390536       22.6983367035
  C         9.0317106020        4.3879780677       21.7137862996
  H         5.6539270374        5.2750081843       23.4134708825
  H         4.7935752027        4.5017233662       24.7821605512
  C         3.8534552705        6.2161132936       24.0962188057
  C         6.0303475529        1.4349328396       28.4766102789
  C         9.0093284356        3.0276483766       21.7134620366
  H         8.7091839550        1.3944033949       22.8842189693
  C         9.2321080859        4.7257986413       20.3946711054
  H         3.1614448143        5.8406605486       23.2434389882
  H         4.2456616968        7.0895089012       23.5444665518
  C         3.1372464764        6.5468841791       25.4081957754
  C         6.0340538050        0.0433734842       28.7456721283
  C         5.6272300985        2.2901615604       29.6526336939
  C         9.4113029570        2.3204241330       20.3437464275
  C         9.6448992565        3.6704206836       19.6217301704
  S         9.3196164917        6.2773407169       19.6728803329
  H         2.1246903455        7.1173101480       25.0806570376
  H         3.8802036511        7.1450820957       26.1124312710
  C         2.7360392590        5.3566424714       26.2172345521
  N         6.4858638445       -0.9363696884       27.8362133959
  C         5.7894234627       -0.5499919780       29.9898174503
  C         5.4130869701        1.7066437693       30.9088435422
  H         5.4469829577        3.3778085958       29.6095228599
  C         8.2756004119        1.4021345954       19.8458845531
  C        10.7711145139        1.4891417869       20.6063853410
  C         9.9348754350        4.0748968552       18.3351277725
  C         9.8983224363        5.5163862620       18.2134063122
  H         2.1044606685        4.6193334246       25.8291723567
  H         3.6272697218        4.8973105240       26.7547361805
  C         1.7381042951        5.7698973119       27.3194956485
  S         6.2625555587       -2.4099576767       28.4906033558
  N         5.7884948699       -1.9597174503       29.9548747081
  C         5.4426169589        0.2708086814       31.1012419811
  H         5.0514307958        2.3434946212       31.6079738304
  H         7.8621264726        0.7364132491       20.6058872164
  H         8.6937602085        0.7374262838       19.0968997977
  C         7.1604082552        2.1007693925       19.0524636614
  H        10.8569196875        0.8960803446       19.6480915607
  H        10.7099759762        0.7155176506       21.3020235083
  C        12.0363149543        2.4019380335       20.7919678052
  H        10.0591037268        3.3289347936       17.5511095725
  C        10.0154312153        6.3796298210       16.9857216401
  H         0.8423198941        6.1085906525       26.8060967029
  H         2.2122409338        6.7515042198       27.6764166059
  C         1.4984914177        4.8952754278       28.5976956036
  C         5.1659508279       -0.3633240316       32.2528828951
  H         7.6367901351        2.7466611618       18.4165274870
  H         6.7159694039        2.7591358406       19.7975640624
  C         6.2608447008        1.2643243405       18.1722415460
  H        12.0534601420        3.1187966236       21.5854626081
  H        12.1194503127        2.8784925953       19.8071898615
  C        13.1586095107        1.5097610579       21.0144603325
  C        10.0646688810        7.7953809904       16.8084513570
  C        10.1118340119        5.6271427187       15.6908574711
  H         1.1540867058        3.8111858483       28.5186463956
  H         2.4835392010        4.7027685772       29.0898613831
  C         0.8531816032        5.5915186347       29.6153355880
  H         5.2822026119       -1.4494219268       32.2122035171
  C         4.8550110237       -0.0528914262       33.5774815833
  H         5.7418127866        0.4554794332       18.6612490168
  H         6.7727677012        0.7059052711       17.3942168603
  C         5.1084275829        2.1398971304       17.5170809879
  H        12.9326932573        0.9433208377       21.9102962752
  H        13.2549687189        0.8125796008       20.1988411796
  C        14.5380648400        2.1440913857       21.3099318561
  N        10.1920510727        8.7141645447       17.8543094923
  C        10.4450201878        8.4194859807       15.6420220189
  C        10.4322341383        6.2857446021       14.4795146255
  H        10.0947335326        4.5559407206       15.7455200584
  H         0.5115253495        4.8135286428       30.3112471571
  H         1.6801043880        6.1471188364       30.0912665886
  H         0.0878991245        6.2259020841       29.3276654161
  S         4.4026611981        1.5941312012       34.1327120998
  C         4.9107453462       -1.0862423359       34.6462082370
  H         5.0245345824        3.1691838775       17.8361958718
  H         5.1959889809        2.2625775555       16.4934435807
  C         3.7052593654        1.5024819075       17.6170165390
  H        14.8780952476        2.9672639704       20.7611403909
  H        15.4906016708        1.6100875192       21.1551631358
  C        14.5172577886        2.8332220501       22.6881198078
  S        10.2641982291       10.1958638363       17.3470580305
  N        10.5878382338        9.7881226905       15.7881028411
  C        10.5811551932        7.7981212954       14.4312277106
  H        10.5499093974        5.6745016443       13.6510512663
  C         4.1892947676        0.7642995768       35.7275593237
  N         4.6531643664       -0.4875470824       35.7910689347
  O         5.1222809128       -2.2604476377       34.4080753938
  H         3.0282442807        2.1197243710       16.9481013291
  H         3.2649334558        1.6593151031       18.6669652972
  C         3.5145465854       -0.0073321025       17.2810404744
  H        13.7424222984        3.5657143419       22.6894247271
  H        14.1148750481        2.1740220123       23.3949844750
  C        15.8998690534        3.3469904700       23.0498572948
  C        10.9425590644        8.5507580187       13.2245648916
  S         3.5333376101        1.5146280508       37.2229533068
  C         4.7350008206       -1.2352051348       37.0709409803
  H         2.6513216664       -0.1550838298       16.6996024613
  H         4.3413527001       -0.3411117140       16.7777398881
  C         3.4169959765       -0.7523857054       18.5947641831
  H        15.8403193227        4.0822768756       23.7822608979
  H        16.2118459025        3.9669372213       22.2142532151
  C        16.8150104627        2.1992244222       23.5779476580
  H        10.8831074163        9.6510373971       13.3956913535
  C        11.5379283412        8.1750405372       12.0789714294
  H         4.3368126456       -0.6820900602       37.8794271544
  H         4.1271176122       -2.1704242232       37.0186292324
  C         6.1782553214       -1.7225250835       37.3562463439
  H         3.7706432410       -0.2705736559       19.5479920495
  H         4.0372876909       -1.6300841742       18.5733456549
  C         2.0477242714       -1.3234357176       18.7681989670
  H        17.0875877466        2.4918263007       24.6165934558
  H        16.3698171422        1.1978175204       23.6702414514
  C        18.1713171468        2.1321815655       22.7415402675
  S        12.0974999009        6.6180838664       11.7327655651
  C        11.5761989745        9.1565837159       10.9573370036
  H         6.9148417992       -0.9460616353       37.2687156728
  H         6.3204104403       -2.1311498020       38.3510447280
  H         6.4245296026       -2.6681974486       36.6885671057
  H         1.8226284886       -1.6351431397       19.8026497322
  H         1.9450259862       -2.3101509073       18.3012514285
  H         1.2232642318       -0.7097575096       18.2968956552
  H        18.5861587538        3.1050151724       22.6289678783
  H        18.0618414950        1.6716177265       21.7636845911
  H        18.8387588998        1.6082878698       23.4380475600
  C        12.4271425239        7.2338606329       10.1474984850
  N        12.1900917806        8.5419938150        9.9480304502
  O        11.2607581951       10.3568540701       11.2113768916
  S        12.8260100736        6.2941677117        8.7081396055
  C        12.2340241075        9.2130257563        8.7037534696
  H        12.6563068163       10.2054634650        8.9976693692
  H        13.0152370975        8.8595355452        8.1138760436
  C        10.8947988531        9.3106151666        7.9560807458
  H        10.8462090394        9.9018457852        7.0123115676
  H        10.5842455995        8.3599220660        7.7217720595
  H        10.0939400863        9.7887227254        8.5350429158
  H         4.9193032799        1.6362798521       12.2758138162
  C         4.1637539006        2.3945480128       12.4073592247
  H         4.6088463748        3.3734056150       12.5349261570
  C         3.2434071653        2.2631501938       11.1561380678
  C         3.4592568396        2.1673526190       13.6750164173
  C         3.9575267037        2.6992146905        9.8374989437
  H         2.4781764026        2.9456258685       11.1983089749
  H         2.9528665362        1.2174238862       11.0030632281
  H         2.9923902449        1.2124735117       13.7329793785
  H         2.5712211490        2.7989724689       13.9828094320
  H         4.1164530296        2.2470912572       14.5924198412
  C         4.6399791337        1.4437867071        9.2458974064
  H         3.3110754758        3.1687849061        9.1716655466
  H         4.6778649796        3.4746117879        9.9953406485
  C         5.3765411934        1.7707807775        8.0023147761
  H         3.9186847656        0.7109383539        8.9339408068
  H         5.2600073178        0.8755504180        9.9500805902
  C         6.5730781853        2.6695282031        7.9891821569
  H         4.5726475549        2.1692108492        7.3314451807
  H         5.7002282483        0.8395779814        7.5016787107
  C         7.8719210392        2.0817078230        8.5846471694
  H         6.8895180835        2.9768195299        6.9521295792
  H         6.3232576726        3.5648954393        8.4913618005
  C         9.0101290845        3.0788394629        8.7995785245
  H         8.1198762490        1.3189987271        7.9048685169
  H         7.6324450691        1.7481462606        9.5400152801
  C         8.5873498510        4.3598111347        9.5633285877
  C         9.5031732420        3.7713630073        7.6486195534
  C        10.1137736816        2.3651525563        9.5438556260
  C         8.8391944235        5.4606323728        8.8106086580
  C         7.9632540923        4.7313074492       10.7636654957
  C         9.3864105944        5.1211961574        7.5857105670
  C         9.9390176698        3.1515283814        6.4946179094
  H         9.6204797473        1.8722571254       10.3295466321
  H        10.4441093793        1.5417128726        8.8307633419
  C        11.1881964071        3.3365757525       10.0683262907
  S         8.5180812544        7.0027392011        9.5805540714
  C         7.9363622748        6.0634352065       10.9339431009
  H         7.5770910560        3.9640768682       11.3344802291
  C         9.7738294007        5.8359951895        6.4501922283
  H        10.0033611036        2.0481442209        6.4189292649
  C        10.2856612977        3.7646086750        5.3622838413
  H        10.6908515716        4.1677585178       10.5879446989
  H        11.6508107049        3.8459008145        9.2446803552
  C        12.2792819732        2.7508927167       10.9849090079
  C         7.6540331344        6.7327489989       12.2119963685
  C        10.2452867795        5.1098025623        5.3234657148
  H         9.6804225032        6.9191507520        6.4659067872
  C        10.6760748838        3.2981604808        4.1255638817
  H        13.1413319338        3.4679396447       10.8223033463
  H        12.7549459406        1.8251848832       10.5284797815
  C        11.7696153778        2.6263620590       12.4342560535
  C         7.7610074316        8.0800351426       12.5592825114
  C         7.2176989531        5.8620901992       13.3081676383
  C        10.7040551896        5.7289391732        4.0469351772
  C        11.0119366104        4.3737484089        3.3457144330
  S        11.0441360208        1.8181765130        3.4362118006
  H        11.3556233814        3.5362724705       12.8237887802
  H        10.9940406401        1.8042122942       12.3635507814
  C        12.7351592123        1.9272824810       13.4208693897
  N         8.0059770419        9.0394176998       11.5979423283
  C         7.5024070751        8.6198641211       13.7884302679
  C         7.0626061878        6.3680785585       14.5593786914
  H         6.9432940197        4.8109713165       13.1257987435
  C        11.9650193694        6.5821977331        4.3137149566
  C         9.4947650919        6.4912038781        3.3377312847
  C        11.3058164169        3.9316714849        2.0268447894
  C        11.4422955350        2.5871994441        1.9849245637
  H        13.7526099720        2.3455988386       13.3013222097
  H        12.7970925451        0.9168970166       13.1486112973
  C        12.1856689894        2.1369126317       14.8458843702
  S         7.9641975817       10.4871756886       12.3248505041
  N         7.5556121863       10.0312560373       13.8712396557
  C         7.0887592096        7.7825815530       14.8295788544
  H         6.5897470206        5.6384622404       15.3233604389
  H        11.5828721831        7.3137405075        5.0097653169
  H        12.2602044033        7.0052695015        3.3835879777
  C        13.1395229670        5.6870974613        4.8423979911
  H         9.2719252503        7.2294448039        3.9776023607
  H        10.0608021539        6.9485826745        2.4515324940
  C         8.3093831816        5.6148110607        2.8615962655
  H        11.4082592971        4.7292745854        1.1447485745
  C        11.7834679705        1.8299845295        0.7208507275
  H        11.6415684441        3.0783399118       14.8809561159
  H        11.4527057168        1.3242272107       15.0358694862
  C        13.2907125729        2.0200446211       15.9808603128
  C         6.9043318314        8.4217699540       16.0849861524
  H        12.9869317783        5.1872831035        5.8704684058
  H        13.1711814619        4.7973345207        4.1838110628
  C        14.5211485258        6.3713454933        4.7533605098
  H         7.9773798070        4.9953535178        3.6306690902
  H         8.5889238520        4.8424794115        2.0762813389
  C         7.2498825225        6.4739419260        2.2086434636
  C        11.8369756384        0.3986833265        0.6057081182
  C        12.1611829145        2.5149189860       -0.5275307639
  H        14.0332366293        2.8055882980       15.8211784219
  H        13.6939289774        1.0418564827       15.8760937622
  C        12.7672976499        2.2108429762       17.3599605635
  H         6.9878379438        9.5199106089       16.0336403164
  C         6.6956281163        7.9802362142       17.3771764088
  H        14.6156289263        7.1353846667        5.5119774055
  H        14.4627764386        6.8999803124        3.8074365207
  C        15.6118525777        5.3752644629        4.6321853106
  H         6.8418589838        7.0919018231        2.9365724898
  H         7.7592660093        7.2470440067        1.6895127464
  C         6.0873146497        5.7760160402        1.6774028094
  N        11.5257925990       -0.4739502978        1.6312403166
  C        12.0989991960       -0.2789523097       -0.6101768299
  C        12.4281601876        1.8331024055       -1.7196330937
  H        12.1647289320        3.5835807754       -0.4490396068
  H        11.7122901671        1.7804021704       17.7236273569
  H        12.5453812237        3.3626751784       17.3424057071
  H        13.5150510107        2.1327636337       18.1227412920
  S         6.3608526754        6.3667858605       17.8805138449
  C         6.7053678140        9.0325203072       18.4607130039
  H        15.2561451739        4.6218416495        5.2987952939
  H        15.5841311231        4.8777878423        3.6557927401
  C        17.0394773082        5.7878843489        5.1247457123
  H         5.8253648998        5.1277635139        2.4653415730
  H         6.4925812497        5.0868171747        0.8484934174
  C         5.0791832507        6.7870236487        1.2049657581
  S        11.7175079743       -2.0247475874        1.0900118750
  N        12.1689046447       -1.6548205999       -0.4014658625
  C        12.3638747114        0.3620777617       -1.8046331865
  H        12.7370323110        2.3332510299       -2.5891881032
  C         6.2588328288        7.1046751069       19.4887475896
  N         6.3827208876        8.4231574563       19.5773660101
  O         6.7509149493       10.2726019682       18.3035233673
  H        17.8895958297        5.3541239553        4.6129008649
  H        17.1153487644        6.8960469792        5.1873339212
  C        17.1422462061        5.4077577117        6.6139958979
  H         5.6437579068        7.7842241515        0.8044593024
  H         4.3668772856        6.4196766220        0.3980836608
  C         4.1864461100        7.2369644108        2.3161109878
  C        12.6422509771       -0.2959252072       -3.0073550905
  S         6.1097960323        6.1199429808       20.9972454853
  C         6.3701405694        9.1398927506       20.8704708867
  H        16.3637036951        5.9025467112        7.0991832150
  H        16.8846600483        4.3824594375        6.6425024365
  C        18.3689997342        5.8979124793        7.2673681458
  H         4.6922184464        7.6326465859        3.1810884754
  H         3.4847894498        6.4448887662        2.5996212580
  C         3.2343036113        8.4028625357        1.9822347605
  H        12.8566767497       -1.3559352022       -2.7506548089
  C        13.1399997581        0.0303911786       -4.2703731068
  H         5.6960420478        8.5643297667       21.5839164784
  H         6.0698156051       10.1952890022       20.6952333542
  C         7.7737933382        9.2068907958       21.3941165310
  H        18.3603075596        5.5094525321        8.2987497115
  H        18.2524354537        7.0302401103        7.4207302212
  C        19.5827465332        5.5037920050        6.5199346724
  H         3.0757693369        8.4833462246        0.9430537056
  H         2.2843417919        8.3684222979        2.4988172055
  C         3.7441396467        9.8401038733        2.1621166116
  S        13.4958900962        1.5692737479       -4.7946724586
  C        13.2613264233       -1.0890262847       -5.2116962473
  H         7.8546211626        8.9387912697       22.4926211422
  H         8.0859122406       10.1965862620       21.4564077548
  H         8.6577034654        8.7207308526       20.9459458843
  H        19.9104523666        6.2821575201        5.7663789886
  H        20.4524302825        5.6205355428        7.1881732563
  H        19.6768432676        4.4887193155        6.1329364638
  H         3.9243494924       10.1379185149        3.1882458645
  H         4.6228494834       10.1043883854        1.5407605346
  H         3.0261597014       10.4261556892        1.7001857632
  C        14.1175881539        0.7842502516       -6.2119567887
  N        13.9728701575       -0.5708376725       -6.1985332409
  O        12.8554586542       -2.2509032334       -5.0178166692
  S        14.8336097329        1.6871558517       -7.5711031754
  C        14.3273829525       -1.4984861135       -7.3457064366
  H        14.6460551999       -2.4687641576       -6.9094561941
  H        15.2594714225       -1.0937209809       -7.8856916117
  C        13.0237807966       -1.5920490426       -8.2993066638
  H        13.0047160941       -0.9313681819       -9.1226994943
  H        12.0352563629       -1.5146822629       -7.8303270365
  H        13.2166057325       -2.6485016626       -8.5181815620
