352
 i =    38600, time =    19300.000, E =        98.5278598576
  H         9.6321590340        4.6441876446       31.3884478761
  C         9.9283246580        5.4850560998       32.0345436841
  H         9.0355181447        5.9943601411       32.2026528062
  C        10.7368172183        6.4258283280       31.1625524047
  C        10.8956049954        5.0012974207       33.1762480910
  C        11.3405446505        5.7413198616       29.9415172867
  H        10.0112778448        7.1469606944       30.7707733492
  H        11.5321813261        6.9513722940       31.7563355490
  H        11.7578753591        5.6137473908       33.3956453623
  H        10.2610841442        4.8890405032       34.0867208862
  H        11.3227297225        4.0280951986       32.9706802480
  C        10.2830925389        5.2685627105       28.9275861264
  H        11.8843863174        4.8901977278       30.2598282268
  H        12.0946301150        6.2890272848       29.4029445851
  C        10.7433201097        5.3445425165       27.4846003099
  H         9.8050652160        4.2795527145       29.2363575330
  H         9.5025073194        6.0052975991       29.0812804797
  C         9.6959936509        4.8395390825       26.4930092003
  H        11.6529708188        4.8000699182       27.3119791639
  H        11.0010903757        6.3770422077       27.2662672899
  C         8.4657854190        5.7386853758       26.2373230142
  H        10.1725034475        4.6411129657       25.5686208890
  H         9.3301607609        3.8724836724       27.0141971147
  C         7.3671701503        4.9918646594       25.4895179664
  H         8.2098687313        6.1198861326       27.1948868413
  H         8.7975105306        6.5997345624       25.6729476327
  C         7.0473922591        3.6631350193       26.1525758397
  C         7.7852213115        4.3568494044       24.1798129713
  C         6.0430358507        5.8284553202       25.4920335860
  C         7.2565766110        2.6122303330       25.3230651962
  C         6.4741934535        3.2622942025       27.3864814002
  C         7.7544409203        2.9959816038       24.0817951076
  C         8.2060129489        5.0598166031       23.1131999053
  H         6.4225177339        6.6159470781       24.8011359537
  H         5.8439277282        6.2655625393       26.4662349821
  C         4.8361014962        5.1765937282       24.7621473030
  S         7.0205132586        1.0753329807       26.0514344603
  C         6.4056779508        1.8970583693       27.4799692465
  H         6.2398256736        3.9914066667       28.0618224246
  C         8.0888860517        2.4420066657       22.8679106728
  H         8.1973209773        6.1406227603       23.1563240279
  C         8.5496291082        4.4730830093       21.9280768120
  H         5.1377272926        4.9008029571       23.7353466640
  H         4.5645471916        4.2492054896       25.1430946021
  C         3.5785372728        6.0251373938       24.9744757767
  C         5.9379073995        1.2206409577       28.7527786313
  C         8.5021023764        3.1094423281       21.7703419030
  H         7.8907321254        1.3965666475       22.8090519476
  C         8.9768056760        4.9291243078       20.7019532762
  H         2.8517200200        5.6260829950       24.2198593293
  H         3.7160015711        7.0670414119       24.6322013043
  C         2.9520623746        6.0195712456       26.3948135182
  C         5.7825927205       -0.1614766595       28.8578672286
  C         5.5098155581        2.0267919076       29.9208785352
  C         8.8749069359        2.4377591739       20.4833392022
  C         9.1799676469        3.8392621766       19.8790341715
  S         9.2059384992        6.3891101380       19.9436211400
  H         2.4308964447        6.9945763631       26.5157003721
  H         3.7352051525        6.2041316157       27.1128077562
  C         2.0460350066        4.8300484864       26.5832020469
  N         5.9711624702       -1.0364573720       27.8075177937
  C         5.5474293218       -0.8030288956       30.0665856432
  C         5.2200159630        1.4239204073       31.1059634829
  H         5.5037368157        3.1311431269       29.9178556388
  C         7.7168234903        1.6247144632       19.9615734431
  C        10.2375278131        1.6429094156       20.6321739185
  C         9.6337848923        4.2279607859       18.6321707350
  C         9.6561438923        5.5809160111       18.5285474502
  H         1.2770743980        4.6815748002       25.8207784393
  H         2.6970033192        3.9870306483       26.6985095171
  C         1.2174779639        4.9665977583       27.8829213823
  S         5.9817191380       -2.5804845550       28.4191648466
  N         5.5778336055       -2.1863381417       29.9678723527
  C         5.3284287946       -0.0264938368       31.2610607711
  H         5.0236134539        2.0627696853       31.9678791956
  H         7.2131601732        1.0629555191       20.7733603783
  H         8.0535051793        0.9131066875       19.2424634723
  C         6.7009807164        2.4923885631       19.3211767195
  H        10.5868343647        1.2068600488       19.7218252898
  H        10.0867567097        0.7993802156       21.2274683952
  C        11.3815302193        2.4124531327       21.3085421008
  H         9.8957375192        3.4105757292       17.8973169288
  C         9.8633193532        6.3954161100       17.2789367873
  H         0.6298660303        4.1076653141       28.1887536870
  H         0.5487999361        5.7669125893       27.7825236096
  C         2.0077149114        5.1813073334       29.1551495444
  C         4.9540366634       -0.7245903824       32.5006642220
  H         7.2099016528        2.9433598882       18.4441473143
  H         6.2959785831        3.2385612041       20.0481873423
  C         5.4977805357        1.7048055881       18.6905891014
  H        11.0168349254        2.9625936797       22.1726865378
  H        11.7759893537        3.1440486581       20.6844644869
  C        12.5275493974        1.5007490254       21.7027489044
  C         9.9439489522        7.7721100899       17.0861803836
  C        10.0520759243        5.6304854781       15.9809101997
  H         2.6023726705        4.3652329955       29.4044532273
  H         2.6958396414        6.0878516395       29.0557086654
  C         1.2256700376        5.4319076168       30.5072321471
  H         5.3018530244       -1.7452981928       32.4481968962
  C         4.6286612601       -0.2756838280       33.7695286040
  H         5.2423472641        1.0343292472       19.5243641632
  H         5.7035172296        1.0945026939       17.8564560153
  C         4.2127932206        2.5541409304       18.5635094013
  H        12.3082838631        0.8350647296       22.5254831280
  H        12.6777222685        0.9665749151       20.7551214170
  C        13.6893871868        2.2925182380       22.0647462527
  N         9.6704620382        8.7169732846       18.0775975627
  C        10.2740182205        8.4120458282       15.8415534378
  C        10.3811025225        6.2503550874       14.7507781694
  H         9.6152243294        4.6063909008       16.0234283530
  H         0.7541079681        6.4849815553       30.4359303494
  H         0.4721970179        4.6900750747       30.6145069577
  H         1.7837182251        5.2735010890       31.4274366118
  S         4.1965080280        1.3585904279       34.3078585239
  C         4.4654292902       -1.3032100877       34.8498958444
  H         4.2465410498        3.1749706654       19.3800034014
  H         4.0451357447        3.0618611592       17.6163357305
  C         2.9969310832        1.6175228927       18.6816085509
  H        13.4151184703        2.9673796323       22.9052986368
  H        14.0901148351        2.8564126168       21.2141462205
  C        14.7921410007        1.4077722224       22.5717502959
  S         9.8504626959       10.2517678951       17.4222228758
  N        10.3458096142        9.7834669967       15.9275455911
  C        10.6026301395        7.6867715654       14.6803992466
  H        10.3832916508        5.6404110286       13.8888104818
  C         3.9954430351        0.7071583142       35.9210265506
  N         4.1635264706       -0.6104016781       35.9965989562
  O         4.6250834035       -2.4644503739       34.6563158884
  H         2.1237051268        2.2371441470       18.9344103263
  H         3.0770648280        0.9956376382       19.5946744868
  C         2.6887099657        0.7520973090       17.5059912625
  H        14.3786703981        0.7095908439       23.3324082582
  H        15.1840897713        0.7937932735       21.7424365978
  C        15.8117782927        2.2768101809       23.3232512193
  C        10.8268109160        8.4409745348       13.5005429113
  S         3.4063636391        1.5337976097       37.3021836118
  C         4.1098923201       -1.3402476559       37.3357121734
  H         2.0181333136        1.2784193859       16.9398810182
  H         3.5682035800        0.6594998010       16.9416154259
  C         2.0822146628       -0.6127278216       17.9191025940
  H        15.3536254626        2.4729524644       24.3145964669
  H        15.9929446300        3.2170267314       22.7724281321
  C        17.1682758040        1.5969408658       23.6087325078
  H        10.5337033635        9.4784202232       13.5099977207
  C        11.3325079235        8.1500674778       12.2410527971
  H         3.0918309431       -1.0945637692       37.7592481034
  H         4.1769312803       -2.4012425022       37.2150075321
  C         5.3070474438       -0.9809640453       38.2695437417
  H         1.0733118794       -0.4146049513       18.3321084721
  H         2.7081848266       -0.9973184100       18.6750770529
  C         1.9126130565       -1.5951746111       16.7442220269
  H        17.5517613272        2.2234972584       24.3868159286
  H        17.0346210901        0.5972206884       24.0188110518
  C        17.9833943556        1.4865174974       22.3307805105
  S        12.0084248508        6.6033969656       11.8171920273
  C        11.4877463426        9.1959226018       11.2239590388
  H         6.1304788987       -0.9965306556       37.5813646687
  H         5.2007535575       -0.0915513366       38.7842969497
  H         5.5560817347       -1.7600141400       39.0016025456
  H         1.1575399964       -2.3276491458       16.9292986584
  H         2.8739134067       -2.1013320781       16.7172615500
  H         1.7974316102       -1.0127402503       15.7573031972
  H        19.0391097304        1.5203423841       22.4059789068
  H        17.7244850377        2.2073883981       21.4873898523
  H        17.7268035722        0.5865481487       21.9439001873
  C        12.2261497214        7.3618616138       10.2244737622
  N        12.0170806253        8.6632919918       10.1247742235
  O        11.0578277292       10.3683440214       11.3691368318
  S        13.0845804095        6.5102256330        8.9417331292
  C        12.2316164339        9.4437416941        8.9231194154
  H        12.7035855505       10.4114209263        9.2242531985
  H        12.8828613336        9.0077884350        8.2403860136
  C        10.8870379360        9.5905131076        8.2062567041
  H        10.8653016548       10.2506001828        7.3411303066
  H        10.4577460841        8.6363974661        7.8954477606
  H        10.1906754190        9.8491663882        8.9538458186
  H         2.6149396218        1.3752625686       14.2334325299
  C         3.4462592730        1.8525673128       13.7441250726
  H         4.1767003346        1.0262765420       13.5681757366
  C         3.0013704372        2.5032390563       12.4575374550
  C         4.1375846918        2.9255797706       14.6907661801
  C         3.9906733395        2.7678391347       11.3294569070
  H         2.5613758820        3.4340749661       12.7832929803
  H         2.1645277912        1.9399370713       11.9723585450
  H         4.5687810851        2.5258158889       15.6062610169
  H         3.4810209635        3.6430556838       15.0670876886
  H         4.9768786508        3.3848325125       14.1122704388
  C         4.7865661737        1.5100676838       10.8563743122
  H         3.4587029637        3.3496059848       10.6029884088
  H         4.7136848776        3.4711530048       11.7349810839
  C         5.3285309654        1.7358193510        9.3812880201
  H         4.0154664699        0.7887141090       10.8537627289
  H         5.6217640750        1.3217769424       11.5624766961
  C         6.4479597646        2.7460296192        9.2669670372
  H         4.4954051803        2.2261101872        8.8687002602
  H         5.4250149095        0.8408058315        8.7242583103
  C         7.8106973699        2.0081971504        9.4245581514
  H         6.3170257295        3.1313386937        8.2429557386
  H         6.2909313691        3.5572886666        9.8660037300
  C         9.0670955876        2.9525148593        9.6256968040
  H         7.8725881823        1.4986084013        8.4826063383
  H         7.7858016967        1.2546346645       10.1554346552
  C         8.5955521462        4.2713979162       10.1927474806
  C         9.3996236541        3.5911218718        8.3243134994
  C        10.3744872111        2.2975835198       10.1362190617
  C         8.7373630665        5.3536572728        9.3305780621
  C         8.2345755147        4.7034485949       11.4218051549
  C         9.2654926120        4.9466482986        8.1457775129
  C         9.9058996354        2.9135883467        7.1856731798
  H        10.0989002576        1.8028134454       11.0997009500
  H        10.6275392957        1.5545404612        9.3860711806
  C        11.5213831073        3.2410666384       10.4570548694
  S         8.2499054051        6.8410686600       10.0066784374
  C         7.9824675814        6.0010526923       11.5330770900
  H         8.1233024504        3.8719639826       12.0709768935
  C         9.6591127490        5.5046132755        6.9582792914
  H        10.0897737413        1.8437769668        7.2312305927
  C        10.2246337308        3.4912652136        6.0045785209
  H        11.1692227428        4.1475331903       10.8565886617
  H        12.0693053869        3.5505536688        9.5815578731
  C        12.5153406096        2.5114499233       11.3506869346
  C         7.4520396168        6.5870961727       12.7687534490
  C        10.0726661624        4.8418941460        5.8236741005
  H         9.5285020113        6.5569384167        6.9967087552
  C        10.6306804268        3.1249523004        4.7301062885
  H        13.5857388117        2.7280305113       11.0550062408
  H        12.4680456119        1.4953392261       11.0947866133
  C        12.3117897545        2.8948844012       12.8327905239
  C         7.4977999139        7.9697441654       13.0598602662
  C         7.0722122537        5.7156707732       13.8642107789
  C        10.5696000499        5.5928725426        4.5945713926
  C        10.7686867583        4.2111703836        3.9013867107
  S        10.9639066580        1.6043520540        4.0021615225
  H        13.0723683578        3.6409164913       13.0443517271
  H        11.2659780509        3.3069155234       13.0787618594
  C        12.6724010797        1.7259079071       13.7903976291
  N         7.8989356000        8.9196940156       12.1339091447
  C         7.3181347398        8.5248919506       14.2946538691
  C         6.6882782352        6.2896275234       15.1085257605
  H         7.0243637010        4.6189834465       13.8171214686
  C        11.9643138747        6.2469857902        4.7678285041
  C         9.5079953102        6.5255580742        3.9154157851
  C        11.0475369914        3.7714728822        2.6235150519
  C        11.2294033776        2.4057259977        2.5188406714
  H        13.7046223713        1.6832908176       13.7722614508
  H        12.3389298065        0.8083122553       13.2809383350
  C        12.0680660818        1.6960540325       15.2355691799
  S         7.8202274735       10.3954674934       12.7456771375
  N         7.4998098148        9.8952459972       14.2523968086
  C         6.8511320071        7.7982089404       15.3782701939
  H         6.2013123146        5.7718392533       15.9018059429
  H        11.8920033682        7.2618675590        5.1571300984
  H        12.2626061273        6.5087506358        3.7779990236
  C        13.0433845978        5.4646706237        5.3957593437
  H         9.2776886032        7.2822116035        4.6217805228
  H         9.7742460296        7.1182992753        3.0401439363
  C         8.2422725131        5.6776897069        3.5666190600
  H        11.0903782552        4.4311293798        1.7531005475
  C        11.5956352316        1.7096414748        1.2323376722
  H        11.0783493757        2.0660842776       15.1562080075
  H        12.0400686619        0.6161739393       15.5025628829
  C        12.8903777068        2.4992289567       16.2402568030
  C         6.4933976346        8.4417179810       16.5575599126
  H        12.6662216204        4.9636668240        6.3286037096
  H        13.2342610027        4.5645825212        4.7805486235
  C        14.1999669908        6.3150681676        5.5416492054
  H         7.8537395315        5.0927783860        4.4117146050
  H         8.5734495478        4.9338917437        2.8376103366
  C         7.0525830451        6.5475882462        3.0675240499
  C        11.7921558673        0.3158030938        1.1578805560
  C        11.8416597656        2.4750697767       -0.0336555222
  H        12.6817406949        3.4953341103       15.9853371959
  H        13.9689637119        2.2244111138       16.3249338778
  C        12.3496262611        2.1274105919       17.6221560121
  H         6.5908690708        9.5109992359       16.5334781763
  C         6.1665246059        8.0566252225       17.8610062833
  H        14.1251876912        7.1353027423        6.2887704228
  H        14.5000396156        6.8290548414        4.6189979821
  C        15.2615570535        5.4070743877        6.1113994663
  H         6.8184370385        7.3849481442        3.7423013396
  H         7.4282529656        6.9254869883        2.1696025320
  C         5.7908135041        5.6992229404        2.8943854176
  N        11.4076325313       -0.6447247436        2.1935989020
  C        12.0603676163       -0.3763283691       -0.0153961309
  C        12.0766632180        1.7562622739       -1.1743785385
  H        11.8621584451        3.5888573607       -0.0509993738
  H        12.4148101406        3.0573934117       18.1731640985
  H        13.0248639877        1.5052024097       18.2401816172
  H        11.3534166362        1.7281125196       17.7451732993
  S         5.9402214354        6.4992679218       18.3962751110
  C         6.2941690935        9.1387652591       18.9054115051
  H        14.8527134729        4.7355328266        6.8952288455
  H        15.7487835285        4.8137820002        5.2957341259
  C        16.3825826517        6.3140293083        6.5986628943
  H         5.6476613928        5.3498189658        3.8337738045
  H         5.9377369003        4.8671631917        2.2474538954
  C         4.6026661774        6.4768883969        2.5019302540
  S        11.4815999809       -2.1074026367        1.6296652640
  N        12.1418380171       -1.7735057323        0.1442066464
  C        12.1972794355        0.2717912518       -1.2506143684
  H        12.1049302169        2.2531101190       -2.1405121228
  C         5.8974551854        7.2251008449       19.9467888641
  N         6.0019609587        8.5512251983       20.0321129200
  O         6.5360965363       10.3702073431       18.7323262391
  H        16.7275162264        7.0510753861        5.8933499701
  H        15.9508318917        6.9163653154        7.4792479851
  C        17.5360744150        5.5835062630        7.2063152774
  H         4.6613254814        6.7174956923        1.4353044554
  H         3.8463776115        5.7236987036        2.6312577378
  C         4.1669527372        7.7650066734        3.3089506803
  C        12.6287937280       -0.4618543885       -2.4117683214
  S         5.7112595843        6.4502422188       21.5424682119
  C         6.2643347591        9.2042018699       21.3445102360
  H        17.7712949380        5.9290331799        8.2201217321
  H        17.3039323482        4.5284730747        7.2718429464
  C        18.6937818677        5.8919760008        6.3490920100
  H         4.6416153323        7.9793064832        4.2813475728
  H         3.0948306323        7.7252017885        3.6296109164
  C         4.3365105494        9.0096576152        2.4450377267
  H        12.7074336448       -1.5381336532       -2.2913911370
  C        13.1124527920       -0.1009936601       -3.6691130771
  H         5.4484929422        8.9839675692       22.0750556360
  H         6.1524481904       10.2388557435       21.1910614101
  C         7.7553648753        9.0291070522       21.8542895427
  H        18.7596628500        6.9226422850        6.1680835531
  H        18.4970476384        5.4399413539        5.4335320602
  C        20.0690791761        5.5102196919        6.9735686632
  H         4.7469898286        9.8526668522        3.0326423052
  H         5.0603312281        8.8455320649        1.6577351346
  C         3.0326393760        9.4234501562        1.7798058550
  S        13.4470198188        1.4267403901       -4.1816838302
  C        13.4212284302       -1.1727328392       -4.7072909444
  H         8.2224489225       10.0249834478       22.0500027435
  H         8.2942344948        8.6505697786       21.0074903872
  H         7.8402841894        8.3738335708       22.7330769550
  H        20.1726512688        4.4182382942        7.1671245922
  H        20.7877379384        5.6742154493        6.2350903091
  H        20.4346940188        6.0455021476        7.8449542980
  H         2.5042748426        8.5275993751        1.6099822609
  H         2.4890974237        9.9793297220        2.4359284574
  H         3.2001433445        9.9529106273        0.8535076136
  C        13.8595523011        0.7010944923       -5.7613490904
  N        13.8476699534       -0.6468425582       -5.7952663788
  O        13.1808390132       -2.3716556728       -4.6069733442
  S        14.2614371985        1.5181332123       -7.1961293413
  C        14.0394183497       -1.5658031814       -6.9588639130
  H        14.5252799288       -2.5168477554       -6.6485485571
  H        14.7792437956       -1.1401457874       -7.6498423997
  C        12.7515122288       -1.8067601719       -7.7459569003
  H        11.7953236240       -2.0984220903       -7.1793828560
  H        12.8958938999       -2.6453625568       -8.3811220116
  H        12.5880382709       -0.8996490885       -8.3841801079
