352
 i =   116900, time =    58450.000, E =       100.1590771675
  H         9.4830317364        5.7712932432       31.9159836961
  C        10.5450595827        5.7110711058       32.1509977500
  H        11.0381502158        6.6473249680       32.3738622013
  C        11.2455889233        5.0504471651       30.8980708177
  C        10.6655890217        4.8020958262       33.4053456598
  C        10.7665082154        5.7642231913       29.6379899527
  H        12.3305573033        5.0397190468       30.9698322343
  H        10.9678826536        3.9414312010       30.9298621720
  H        10.3635279822        3.7535790507       33.2463298186
  H        11.6664864788        4.6956108157       33.6303938365
  H        10.1968021778        5.2581322316       34.3280130539
  C        10.5092496245        4.6370647721       28.6445282652
  H        11.6308474324        6.3498990506       29.3036641787
  H         9.9318713625        6.4957233829       29.8213473981
  C        10.4888866032        5.2213968496       27.2492660372
  H        11.4410669053        4.1314966353       28.6030232945
  H         9.5914080719        4.0423976047       28.9494100459
  C         9.3221366842        4.6145417234       26.5372168010
  H        11.3365525455        4.8779072386       26.6908306808
  H        10.5848820546        6.3303707408       27.2151442870
  C         8.0197463274        5.4970602443       26.4626260866
  H         9.7042791380        4.3506533156       25.5095874174
  H         9.0896979843        3.6738274297       26.9887653211
  C         6.7410526032        4.8177967143       25.9139309249
  H         7.9236360288        5.9519222465       27.4744733011
  H         8.2344037736        6.3418819736       25.7727333895
  C         6.4458653722        3.4618908268       26.5399835834
  C         7.1194952863        4.1829492872       24.5746021810
  C         5.5574734911        5.8444828945       25.7084918035
  C         6.7173792676        2.4006542200       25.6629754315
  C         5.8958490424        3.0324818832       27.7765657930
  C         7.1850675780        2.8350276510       24.4762503155
  C         7.5564879633        4.8352378085       23.4480424640
  H         5.9447954921        6.7827993355       25.3913797109
  H         5.0792895098        6.1060263002       26.6619181131
  C         4.3903362753        5.3903054074       24.8638244971
  S         6.4139561681        0.8822532368       26.3868166861
  C         5.7966046825        1.6369150996       27.8303689159
  H         5.7944142019        3.8380892962       28.5802940867
  C         7.6873559049        2.2325985591       23.2822766485
  H         7.6166919706        5.9077948407       23.4170078200
  C         8.0411876525        4.2609460421       22.2711640375
  H         4.6552784421        5.3589291332       23.8158504404
  H         4.1658315765        4.3242746201       25.2214535454
  C         3.0673267845        6.2519258615       24.9527925998
  C         5.4505075669        0.9101630478       29.0398734712
  C         8.1753242155        2.8915064208       22.1413944853
  H         7.7970662087        1.1761236772       23.2798671021
  C         8.5243082331        4.6529884321       21.0316238393
  H         2.4555368505        5.7026422535       24.3054159505
  H         3.1803721626        7.2399306554       24.5696588027
  C         2.3434944429        6.2712382153       26.2329178718
  C         5.4786746866       -0.5116921573       29.1783028867
  C         5.1828495219        1.6612204774       30.2472656862
  C         8.6623190709        2.1858347868       20.8703714837
  C         8.9220209456        3.6092244099       20.2151935272
  S         8.7821984908        6.1945170715       20.3356977923
  H         1.3934949261        6.6942405119       26.1219386234
  H         2.8563098734        7.0868069021       26.8426585815
  C         2.1498696595        4.9048026414       26.9819886095
  N         5.8424761008       -1.3853438057       28.2379911426
  C         5.1889621558       -1.1221705787       30.4218768949
  C         4.8449843861        1.1279830862       31.4539932230
  H         5.1599173347        2.7322844804       30.2919243775
  C         7.5166686052        1.4958770777       20.0556477816
  C        10.0090718935        1.3941163272       21.1305927161
  C         9.3020168086        4.0798253129       18.9470539846
  C         9.2108960823        5.4676636088       18.8660895254
  H         1.9908223627        4.1308360120       26.2127277889
  H         3.0712591659        4.6061006957       27.4539106183
  C         1.0794079523        4.9768407779       28.0626891869
  S         5.8489362301       -2.9136080118       28.8650152156
  N         5.2797681155       -2.4813578511       30.3315687968
  C         4.8158173419       -0.3784664678       31.5688605809
  H         4.6196951231        1.8164370706       32.2799609096
  H         6.9361433174        0.8552090131       20.6192388262
  H         7.9406079763        0.9183075406       19.1626143405
  C         6.4370579946        2.4684923186       19.5282142982
  H        10.4318473030        0.8645004935       20.3092110639
  H         9.8871659636        0.7247976726       21.9417248699
  C        11.1407445245        2.3229920389       21.3811419342
  H         9.6841625814        3.4077931244       18.2606592253
  C         9.5561432784        6.2450268940       17.5947080222
  H         0.6867728534        3.9979034532       28.2663526024
  H         0.2858972883        5.6124582327       27.6976999318
  C         1.7389482174        5.5869937806       29.3308763190
  C         4.6804173282       -1.0904735455       32.8185344602
  H         6.7070484004        3.2861509609       18.8153718380
  H         6.0344406870        3.0304362167       20.3345975352
  C         5.5105345706        1.5384172645       18.7051040271
  H        10.9186773778        3.1070124922       22.1969313993
  H        11.3475319279        2.9137422106       20.4503065112
  C        12.4442876287        1.6577707123       21.6518918317
  C         9.6385920961        7.6075919758       17.4301362533
  C         9.8999223379        5.4312103272       16.4404242600
  H         2.1273964190        6.4977474410       28.8974878699
  H         1.1051759553        5.9651151210       30.1294911331
  C         2.9315265655        4.9168516736       29.9466341210
  H         4.5947426892       -2.1611862160       32.6695663437
  C         4.4863054584       -0.6577959199       34.1133096919
  H         4.9321871881        0.9940209541       19.3572413261
  H         6.0627650149        0.7646537087       18.2074723580
  C         4.4820908582        2.2070699128       17.7897105895
  H        12.2512759971        0.7931025249       22.3139039913
  H        12.8909965445        1.2605278424       20.7104045731
  C        13.3589305027        2.6070207311       22.4262479306
  N         9.4057988650        8.5280846527       18.4365450029
  C        10.0634383766        8.1686345553       16.2802725665
  C        10.2003744177        5.9375392695       15.2009097463
  H         9.8705702118        4.3850525728       16.4365777666
  H         2.9622253357        4.9848901992       31.0114990905
  H         3.1289996932        3.8914549607       29.6929737980
  H         3.9379632354        5.3984443387       29.9008830510
  S         4.3051694822        0.9596078899       34.7503882775
  C         4.3439237643       -1.6315314795       35.1960474220
  H         4.3790727442        3.2539732605       17.9325094527
  H         4.7642598551        1.9376797844       16.7918064552
  C         3.0319120681        1.7509037624       18.0309738524
  H        13.0467229832        2.8592706028       23.4757201118
  H        13.4995210328        3.5758437982       21.8709256073
  C        14.8118297828        2.0279340231       22.6319457789
  S         9.5496769854       10.0337659448       17.7588390322
  N        10.0355405791        9.5372903744       16.2957434993
  C        10.3153611317        7.4347171304       15.0892625478
  H        10.3283311365        5.2224190207       14.3547258010
  C         4.1944127144        0.2359346344       36.3681974556
  N         4.1032195961       -1.0929388057       36.3878170559
  O         4.3964100864       -2.8482384723       34.9397023049
  H         2.2705887302        2.3494725513       17.5851626682
  H         2.8010628272        1.5509348828       19.0605970621
  C         2.8601200436        0.4094019736       17.4711732432
  H        15.0991857091        2.6098384318       23.4689712182
  H        14.9424479621        0.9831393245       22.9683791643
  C        15.7554272373        2.3751066032       21.4661935456
  C        10.5511753300        8.2053163057       13.9129054106
  S         3.7683974301        1.1679078978       37.8645172822
  C         4.0883930600       -1.9391438121       37.5134871796
  H         2.3421375363        0.4504096574       16.5380745850
  H         3.7621986588       -0.0788470401       17.2580537024
  C         2.0318075839       -0.4511616754       18.3715863676
  H        15.7879884828        3.4238107746       21.4634978634
  H        15.2477321504        2.1168840141       20.5384094219
  C        17.1405480309        1.6778913138       21.6242965253
  H        10.3284124293        9.2548537241       14.0711161999
  C        11.0343551830        7.8960290964       12.6552976395
  H         3.5058386046       -1.4705249022       38.2918183329
  H         3.5146158709       -2.8617504949       37.3563546812
  C         5.5532138922       -2.1546127012       38.0251792480
  H         1.1489449135        0.0167422537       18.7473546890
  H         2.5833593342       -0.7455585760       19.2791376735
  C         1.7459808736       -1.6832363105       17.5368113161
  H        16.9773154898        0.5898276976       21.7979913443
  H        17.7423867801        1.7599579217       20.7020191595
  C        18.0523377957        2.1125478107       22.8747458567
  S        11.5826128927        6.3448909887       12.0900882501
  C        11.0505145694        8.9981296105       11.6251408539
  H         5.7231779644       -3.0502082868       38.5994239365
  H         6.3330523951       -2.1858539559       37.1637521839
  H         5.8315045693       -1.3096601430       38.6104222538
  H         1.0665623334       -2.3381791455       18.1483517301
  H         2.5891318689       -2.3493424974       17.2807043138
  H         1.2837308514       -1.3972554331       16.5847989327
  H        17.4881130970        2.7002534226       23.5863470410
  H        18.8679762321        2.7803648658       22.4959705360
  H        18.4918825937        1.3535285233       23.4704392238
  C        11.9630946429        7.1846336632       10.5485480241
  N        11.6429013214        8.4577599460       10.4982139181
  O        10.7534567212       10.1801800856       11.8885014469
  S        12.6845862865        6.3892915335        9.1519407433
  C        11.8582789978        9.4227406406        9.3604266617
  H        12.2060367791       10.3695135438        9.7776164022
  H        12.6300370877        9.1607459741        8.6595339845
  C        10.4295998490        9.7443368551        8.7396065202
  H         9.8700193526       10.4391386241        9.4117123146
  H        10.4297284870       10.1668084390        7.7417727672
  H         9.9168767332        8.7546364488        8.8296939659
  H         2.6258519092        3.2633464466       12.9652275625
  C         3.0169631380        2.2992639098       12.5826027870
  H         2.6109824997        1.4083536963       13.0967216928
  C         2.4557543620        2.1525086554       11.1746895020
  C         4.5408373651        2.1833705017       12.8231349137
  C         3.4439368679        2.4619502623       10.0355054535
  H         1.6584959486        2.8140760988       11.1230484632
  H         2.0764670891        1.1109579301       10.9962322213
  H         4.9396190358        1.0782559367       12.7246076123
  H         4.6982290939        2.3291711630       13.8879365212
  H         5.2073189705        2.8047524759       12.2640308665
  C         4.1196956341        1.2537581045        9.4125212237
  H         2.9927411250        3.0399004530        9.2465610370
  H         4.1769779749        3.1340939587       10.4130001879
  C         5.1238895542        1.4639896384        8.2061410135
  H         3.3753184781        0.6835611973        8.9559321523
  H         4.5390045676        0.5511619644       10.1040299136
  C         6.2091936518        2.4627246481        8.4238188631
  H         4.5009711243        1.7298727005        7.3630771768
  H         5.5787803675        0.5300002212        7.8574487978
  C         7.4460972814        1.8413494855        8.9907088792
  H         6.3091070694        3.0194674391        7.4692869455
  H         5.9849109977        3.2319623353        9.1105620362
  C         8.6477243168        2.6746765754        9.2869561635
  H         7.6321826908        0.8913601141        8.4153557453
  H         7.2029823110        1.4214811386        9.9546678474
  C         8.3041688897        4.0407129769        9.9767963786
  C         9.1250103707        3.4536540299        8.0818141508
  C         9.8238048533        1.9730467508       10.0387055241
  C         8.5825281706        5.1496441555        9.1939161966
  C         7.6502531859        4.4296024798       11.1182091347
  C         9.0680425957        4.7960721170        7.9690324919
  C         9.6438448481        2.8631817242        6.9309439666
  H         9.4481534164        1.6070628408       10.9869180056
  H        10.0901662477        1.0776109340        9.4289133800
  C        11.1021584632        2.8231689135       10.1479143966
  S         8.4278087572        6.6408175653        9.9647068740
  C         7.8123407365        5.7745339042       11.3105941044
  H         7.4285670451        3.5955421471       11.8475393476
  C         9.5516172941        5.5045433977        6.9046351337
  H         9.6822752134        1.7907632536        7.0445257165
  C        10.0742086130        3.5203385776        5.8261616648
  H        10.8754618491        3.8795177752       10.2485848888
  H        11.6713239394        2.7362932859        9.2718311239
  C        12.0828868833        2.3900799172       11.2364375270
  C         7.4523165640        6.4903406146       12.5745140063
  C        10.0636980487        4.9013121672        5.7365303872
  H         9.4287387498        6.5815406841        6.9069229978
  C        10.5543326555        3.0971795239        4.5995843836
  H        13.0993326121        2.7589901095       11.1523733854
  H        12.0738474855        1.2687691502       11.2402542878
  C        11.7478053419        2.8473535051       12.6754099196
  C         7.3611667021        7.8774235550       12.8005364263
  C         6.9796972072        5.6590918064       13.6734314963
  C        10.6121583580        5.5104989543        4.4785863384
  C        10.8970750746        4.1602807157        3.8361690339
  S        10.8278235925        1.6280038680        3.8825199598
  H        12.4526129144        3.6325433401       12.7498450336
  H        10.7848622644        3.4107749742       12.8238495575
  C        11.9412147009        1.7588712294       13.7162032432
  N         7.5478190430        8.8692107737       11.8187236796
  C         7.0720504891        8.3960212333       14.0062494788
  C         6.7161017726        6.1458444097       14.9580558818
  H         6.7464712758        4.5961918236       13.4659608774
  C        11.9121534845        6.3017827174        4.7618303262
  C         9.5109482156        6.2593147340        3.6741620049
  C        11.3671263351        3.7457766096        2.5483357841
  C        11.3143598632        2.3806827357        2.4281875223
  H        12.9044087627        1.3381075246       13.6306615097
  H        11.3188459612        0.8128903334       13.5670492765
  C        11.7460229023        2.2419381128       15.2141699395
  S         7.7038661997       10.2882487567       12.5597132073
  N         7.3711951280        9.7321067730       14.0855025531
  C         6.8402734991        7.6192021812       15.2221109272
  H         6.3582001034        5.4980487760       15.7910373812
  H        11.5965049029        7.0806464034        5.4865786716
  H        12.0986282284        6.7577794838        3.7590949315
  C        13.1306524989        5.4867622528        5.1768552918
  H         9.1948672116        7.0989385421        4.3090155691
  H        10.0480565587        6.6125606454        2.7880589035
  C         8.3350037856        5.2692109153        3.3071484319
  H        11.6895452999        4.4521600777        1.8359770150
  C        11.6774792205        1.6480090375        1.1642462550
  H        11.2991470873        3.2324891207       15.2019193961
  H        10.9733730950        1.5783389812       15.6644924816
  C        13.0378627045        2.2276858343       16.0034143786
  C         6.5426924497        8.2860346255       16.4819756740
  H        12.8924889267        5.1002877428        6.1496358067
  H        13.4856144537        4.6370571461        4.6043662724
  C        14.3065946368        6.4268956605        5.4153782114
  H         8.1235142382        4.5449980294        4.0502019159
  H         8.5411680350        4.6066403405        2.4702852046
  C         7.0964703327        6.0228266758        2.8663439612
  C        11.7676543903        0.2037241719        0.9335085486
  C        12.1225056598        2.4376066422       -0.0153418709
  H        13.5226116921        3.0074975853       15.4752441336
  H        13.4918381585        1.2825776137       15.8354929391
  C        12.7195492362        2.5385343497       17.4706805857
  H         6.5827878335        9.3256176145       16.3268071028
  C         6.1335019666        7.8872232573       17.7467581918
  H        14.0578237310        7.3855278516        5.8043876483
  H        14.8109190209        6.4982731276        4.4631770545
  C        15.3179384042        5.7920669800        6.3686046836
  H         6.2340058256        5.3316346889        3.0586232842
  H         7.0512534905        6.8533923158        3.5415962031
  C         7.0996763151        6.5388090085        1.4051398087
  N        11.6190218201       -0.7825624838        1.9338845958
  C        12.1481921043       -0.3664404711       -0.2624363423
  C        12.3574138351        1.8259645426       -1.2392916287
  H        12.0019039619        3.4953793278       -0.0913204675
  H        13.4410952416        2.1170969172       18.1483750341
  H        11.7214694272        2.2536960221       17.7127100032
  H        12.7868770842        3.5895730585       17.6386860576
  S         5.9161749472        6.2976176608       18.3137364730
  C         6.0436247471        8.9600592941       18.8055220780
  H        15.4145917547        6.4389026863        7.1943287787
  H        14.9986600261        4.8031768182        6.7248374325
  C        16.6979373390        5.7120188525        5.7157432971
  H         7.3034664108        5.7377858300        0.7206373974
  H         7.9090370796        7.2293396890        1.3163265308
  C         5.8060290317        7.3107528349        1.0645163983
  S        11.9035270287       -2.2487876282        1.2610162862
  N        12.3880501803       -1.7601436711       -0.1927923339
  C        12.4210562933        0.3362919483       -1.4406525450
  H        12.4492208348        2.3646000315       -2.1286630133
  C         5.3832397143        7.0761690224       19.8692360575
  N         5.5917034782        8.3904037772       19.9671182058
  O         6.1110912008       10.2034680175       18.6104063994
  H        16.6742979277        5.0343214050        4.8830860316
  H        17.0654302326        6.6554304452        5.2340131821
  C        17.7286782375        5.1492867747        6.6571146324
  H         6.1135753460        8.0311080072        0.3282366797
  H         5.0227989145        6.6904512961        0.6546915889
  C         5.2069842195        8.1509440664        2.1768519763
  C        12.7411116578       -0.4204851463       -2.6063931495
  S         5.0574463466        6.2995168225       21.4213828333
  C         5.6097591560        9.1712068946       21.2093917515
  H        17.2935907273        4.5374448547        7.4189606597
  H        18.3363133357        4.5110835213        6.0276132326
  C        18.7060396669        6.0814691700        7.2618194442
  H         5.7378699710        9.1190300830        2.3115181753
  H         5.1016486597        7.6244666935        3.0611523434
  C         3.7525695587        8.4797333674        1.8816706339
  H        12.5452702680       -1.4847054890       -2.4922065207
  C        13.1526702554       -0.0400622359       -3.8360985894
  H         4.9809597098        8.7686570683       22.0392566874
  H         5.3654441634       10.1923477361       21.0055993324
  C         7.0100360206        9.2034288340       21.8218067287
  H        19.1963148324        5.5753064351        8.0806367755
  H        18.2306684304        6.9897707925        7.5907915651
  C        19.8669808593        6.3015294437        6.3642106508
  H         3.5937839034        8.4576130648        0.7717462299
  H         3.1047217560        7.7514340256        2.3634017059
  C         3.4212793006        9.8633451263        2.2460047972
  S        13.6340199658        1.4988463529       -4.3265876611
  C        13.3102707504       -1.1106301287       -4.8256156518
  H         7.7066993290        9.2947822548       20.9942734929
  H         7.2790761005        8.1992161258       22.2750541220
  H         7.2075160881       10.0505131090       22.4102636393
  H        19.6958163108        6.8792518258        5.4460208980
  H        20.5005647395        6.9034108908        6.9534491497
  H        20.3092082371        5.3700326167        5.9017769549
  H         3.4588527860        9.7651180933        3.3583829913
  H         4.1034048867       10.6715075203        1.9580844835
  H         2.4751042887       10.2137053158        1.9957060757
  C        14.0827632342        0.7865857324       -5.8916980119
  N        13.9192060122       -0.5755941303       -5.9157588346
  O        13.1419804248       -2.3367515666       -4.6372759318
  S        15.0471450229        1.6393525324       -7.0715821015
  C        14.1751121330       -1.3879246167       -7.0626588972
  H        14.4230146680       -2.3783252169       -6.6506568774
  H        15.1206725011       -1.1837071344       -7.6105077217
  C        12.9964695934       -1.5241456611       -8.0870582740
  H        12.0146788022       -1.4694547144       -7.6019587277
  H        12.8989149968       -2.5509951689       -8.6481020763
  H        13.0980765357       -0.7379115040       -8.8884761408
