352
 i =    53900, time =    26950.000, E =       100.0540362434
  H         9.9113748590        4.7873269478       31.6032977159
  C        10.5246589551        5.6428747811       31.9634565302
  H         9.8625771659        6.2528509546       32.5686965723
  C        11.0420015358        6.4336279525       30.7661153149
  C        11.6885157162        5.2498009064       32.9060994322
  C        11.2926393465        5.5686350717       29.5152653587
  H        10.2533288652        7.1782292208       30.3957183031
  H        12.0563408439        6.8156981591       30.9686557746
  H        12.5135670626        4.8796409718       32.3320375379
  H        12.1735141149        6.0933813168       33.3508361645
  H        11.3548601982        4.4349216669       33.5759709921
  C        10.0787110771        5.0275201497       28.8065672826
  H        11.9894443365        4.6713137056       29.7826840322
  H        11.8333731536        6.1281939960       28.7961921549
  C        10.4747213016        4.9460802773       27.3163156210
  H         9.6305721691        4.1601737861       29.1960588935
  H         9.3381838283        5.7371025307       28.9431415181
  C         9.4750138325        4.3327019981       26.3632261430
  H        11.4517566134        4.4915977347       27.2015451064
  H        10.6194972193        5.9314505522       26.8303351386
  C         8.4019988752        5.3555353669       26.0287138863
  H        10.0493418242        4.0529696942       25.4829761173
  H         9.0396194348        3.3883043595       26.8151382548
  C         7.2174799446        4.7149051792       25.2032671635
  H         8.0926308579        5.6582558425       27.0520803814
  H         8.8869569409        6.2107789158       25.5283440172
  C         6.7302197124        3.4037470298       25.8101577145
  C         7.7332806558        3.9881422889       24.0060340847
  C         6.1014553548        5.6648416496       25.0318193032
  C         6.9131569441        2.2951494278       24.9900412761
  C         6.1468372425        3.0557184643       27.0361185011
  C         7.5199978630        2.6823697619       23.8426916603
  C         8.3466373875        4.6296188644       22.9115651877
  H         6.3424841130        6.2421505765       24.1376260808
  H         5.9406369058        6.2112702460       25.9856365528
  C         4.6868700337        5.1323494651       24.7543257638
  S         6.3966736554        0.8448342818       25.7726986102
  C         5.9746397755        1.6801612451       27.1881681968
  H         5.9152798033        3.8206434991       27.7435152077
  C         7.9351385796        2.0601541602       22.6872903369
  H         8.4876530928        5.7205546475       22.9217102735
  C         8.6371244089        3.9784169993       21.7573336872
  H         4.5779267862        4.6027011191       23.7831712678
  H         4.4608176131        4.4028838697       25.4817325386
  C         3.5415398725        6.0532020634       24.9143705406
  C         5.6259592343        0.9760711557       28.4826101064
  C         8.4731887470        2.6806197418       21.6236576208
  H         7.8477370420        1.0367886998       22.6437994661
  C         9.1084253393        4.3842121242       20.5475044840
  H         2.6215680570        5.6457081654       24.3507010390
  H         3.5881183787        7.0633915400       24.4823465417
  C         3.0985275774        6.2066000848       26.3544113961
  C         5.6380169101       -0.4225301903       28.8103988550
  C         5.2836203771        1.8714546278       29.6353686324
  C         8.9021214193        1.9660045179       20.3577901735
  C         9.2527240155        3.3086697680       19.6938277814
  S         9.3757282481        5.8947514387       19.8421985030
  H         2.5792316323        7.0838625555       26.3695717393
  H         3.9811832948        6.4003302921       26.9161381890
  C         2.2132336250        4.9435657971       26.7885076136
  N         5.9547354972       -1.4054110091       27.8605052878
  C         5.4669472771       -0.9470536091       30.0482630141
  C         4.9148860306        1.3523055672       30.8316567649
  H         5.1559931019        2.8797373994       29.5168286838
  C         7.7429769075        1.2035544441       19.6176109223
  C        10.0993845945        1.0504505034       20.4944543113
  C         9.6999748312        3.7922692795       18.4612644278
  C         9.7025346388        5.1279508056       18.3340914025
  H         1.3233364640        4.8065778309       26.1733208625
  H         2.6603003011        3.9693514719       26.5531692302
  C         1.6224514750        5.0080589722       28.2105970895
  S         6.1638372618       -2.8223294774       28.6371283471
  N         5.8727187526       -2.3347941566       30.1163299653
  C         5.1192274615       -0.1054461509       31.1055453428
  H         4.5069194549        1.9797602804       31.6443316853
  H         7.4678924225        0.2435094985       20.1287169731
  H         7.9620758967        0.9350605620       18.5605768094
  C         6.4255923767        1.8848218296       19.6054965896
  H        10.1477799700        0.4568019622       19.5674024454
  H         9.9280319602        0.2586142233       21.2439346484
  C        11.4275898252        1.7759789455       20.8692702809
  H         9.9211516671        3.1114936567       17.6644838767
  C         9.8471847842        5.9635328953       17.1018295080
  H         0.9134120971        4.1896575616       28.3939239644
  H         1.0081287325        5.8941463359       28.3619105839
  C         2.6704805205        5.0303518246       29.3354614362
  C         4.9116269487       -0.7218916619       32.3912752036
  H         6.5489437991        2.9609931087       19.6252997244
  H         5.9329064539        1.6009942749       20.5675197083
  C         5.5500457588        1.6397905504       18.3458071090
  H        11.3407069096        2.4420613830       21.7302514832
  H        11.8380870976        2.3436163830       20.0488927570
  C        12.5301217900        0.7290991451       21.1607135070
  C         9.9619106481        7.3949890042       17.0075699995
  C         9.9325420518        5.2985663649       15.7737125711
  H         3.2777074392        4.1370853102       29.2701740945
  H         3.3469853046        5.8202704106       29.1266003223
  C         1.9515352435        5.1113838304       30.6521803240
  H         5.0847087300       -1.8077593487       32.2957099200
  C         4.8123440119       -0.1497913047       33.6889409441
  H         5.4098441186        0.4934736526       18.2877445528
  H         6.0712216635        1.9859284916       17.4499286158
  C         4.1592616084        2.2968621696       18.4113363756
  H        12.2336390686        0.0057246878       21.9624284139
  H        12.7602799527        0.2143819496       20.2122781250
  C        13.7776854818        1.5875657641       21.5011017897
  N         9.9357855828        8.3058828783       18.0549558399
  C        10.2500751530        8.0600082504       15.8110326961
  C        10.3484667284        6.0008897164       14.6760903372
  H         9.9340482138        4.2330125214       15.6783984160
  H         2.6944547830        5.1277612912       31.4233803631
  H         1.3723540352        6.0861571797       30.7802110703
  H         1.2300618171        4.3874537428       30.9098413236
  S         4.7537774058        1.4997991422       34.1877296833
  C         4.5561198582       -1.1851524394       34.7709635521
  H         4.2781135665        2.9494455615       19.2999610877
  H         3.9453747397        2.8729973236       17.4711281301
  C         3.0688183188        1.2778873853       18.7805338901
  H        13.5117160144        2.1575927505       22.3841003540
  H        13.8717628830        2.3265007878       20.7561166620
  C        15.0280005178        0.7600687680       21.8246971328
  S        10.1104133758        9.8038753407       17.4559986421
  N        10.3088768341        9.4464548028       15.9168109607
  C        10.5526778124        7.4642189637       14.5966547628
  H        10.3590862350        5.4176514951       13.7194208296
  C         4.4828850281        0.8354714982       35.8402463076
  N         4.3294026870       -0.5119218091       35.9318791171
  O         4.5376273174       -2.3685051392       34.6002758337
  H         2.2646707007        1.8585409258       19.2257527156
  H         3.5102995427        0.7126430575       19.5544320981
  C         2.5833266884        0.4387706964       17.6531146604
  H        14.9442500008        0.3075391671       22.7764848198
  H        15.2026689800       -0.0922503357       21.1191329934
  C        16.2216551525        1.6440995693       21.9500031974
  C        10.8515847347        8.2737063464       13.4478185410
  S         4.0887824254        1.7441430662       37.2947514776
  C         4.2641240975       -1.2562574782       37.2004602383
  H         2.0527556981        0.9931558498       16.8309899452
  H         3.5026126660        0.1708485935       17.2137178167
  C         1.8129410454       -0.8644705512       18.1110454991
  H        15.8392878230        2.6193591095       22.2517868299
  H        16.7047884515        1.8064743591       20.9598092208
  C        17.1452643512        1.0378020510       22.9076281319
  H        10.7569701033        9.3015777066       13.6478857352
  C        11.3239458549        7.9232641497       12.1724525449
  H         3.5695128286       -0.8395685659       37.9538449904
  H         3.9657640328       -2.2984792074       37.0668095304
  C         5.6528241011       -1.2335212776       37.8738528449
  H         0.6919138710       -0.7425873777       18.1601650274
  H         2.1890501633       -1.0757508567       19.0893070339
  C         2.1895695177       -2.1251010386       17.2198071906
  H        17.2007166369       -0.0229007922       22.5763964918
  H        18.1107748921        1.4511499774       22.7320316034
  C        16.8398614682        1.1899989099       24.3928338665
  S        11.6930508227        6.4191094976       11.5766726937
  C        11.3777663510        9.0205131830       11.2202853414
  H         6.2482412929       -2.0330060565       37.4009976651
  H         6.2639223074       -0.3264106696       37.7785556420
  H         5.4636648936       -1.6565007894       38.9240633245
  H         2.0354951816       -3.0967550462       17.6694189399
  H         3.2537902741       -2.0377873095       16.8492064064
  H         1.4880076702       -2.1235045008       16.3601482607
  H        17.7704943861        1.5339209608       24.8587269270
  H        16.6123609935        0.3254611234       25.0006670716
  H        16.2189319851        2.1231158195       24.5909891150
  C        12.0158349388        7.1503446428       10.0546980336
  N        11.8932070573        8.4620492029       10.0820259860
  O        10.9464946073       10.1383286888       11.3985116304
  S        12.4578661136        6.2911370210        8.5059461998
  C        11.9730407132        9.2600578782        8.9125902352
  H        12.4002664683       10.2914720813        9.1242746309
  H        12.5957614320        8.7212390973        8.1966873354
  C        10.6772336212        9.3355042943        8.0927625629
  H        10.3100518877        8.3968677601        7.7534369910
  H         9.9313757983        9.8086702371        8.6590988115
  H        10.8484446778        9.8468445534        7.1405286408
  H         4.0579089525        1.5655082626       12.4088999926
  C         3.4572886412        2.4739965180       12.5341883222
  H         4.2155430285        3.2063750623       12.6961740346
  C         2.6280794629        2.7201026823       11.2084538337
  C         2.6181288482        2.5173130010       13.7594196166
  C         3.6080836597        2.9230176120        9.9711154419
  H         2.0953510098        3.7158195271       11.3157147992
  H         1.9401841461        1.8668627309       11.0316898256
  H         2.4194181883        3.5680771382       14.0454428706
  H         3.0656926739        2.1056947048       14.6383561312
  H         1.6855174515        2.0701052766       13.5937078134
  C         4.0319017375        1.5471705742        9.5327332784
  H         3.2347816834        3.2573806051        9.0454739642
  H         4.4155159963        3.6045132800       10.3439573550
  C         4.8310842647        1.4951416761        8.3028351005
  H         3.1144943235        0.9807744218        9.3536368056
  H         4.4361515604        0.9798628078       10.3972806567
  C         6.1393873166        2.2511647838        8.3268741294
  H         4.1454321099        1.8833027296        7.5121066104
  H         5.0922677009        0.4205819221        7.9989508749
  C         7.2648327829        1.5025651349        9.0743214433
  H         6.5262388731        2.4792267966        7.3685381065
  H         5.9410954932        3.2115682270        8.7356462469
  C         8.6135527815        2.3541602084        9.2625630580
  H         7.4678258268        0.6440640172        8.4875839278
  H         6.8052219111        1.0551231290        9.9411926383
  C         8.2359645024        3.6690880632        9.9590528507
  C         9.1071823192        3.0442981822        8.0269369244
  C         9.7775524285        1.7048401270        9.9129362239
  C         8.5619599023        4.7265470606        9.2010510287
  C         7.7599633391        4.0153904206       11.2501853008
  C         8.9804435295        4.3697163764        7.9337861774
  C         9.6643940357        2.4908405213        6.9083329480
  H         9.3042694739        1.3365407406       10.8223857842
  H        10.1241103416        0.7793729607        9.4637809528
  C        10.9949029352        2.5901377858       10.1379647663
  S         8.2831763468        6.1846081599       10.0508048443
  C         7.8860292893        5.3637893726       11.4825001816
  H         7.3693095632        3.3201946041       11.9756371896
  C         9.4604633179        4.9518587197        6.8033041334
  H         9.7997978788        1.3862838579        6.9405386665
  C        10.0794209608        3.0582714961        5.7709502155
  H        10.8263858523        3.5993824721       10.4058870326
  H        11.4958260449        2.5356979114        9.2148131173
  C        11.8907686047        1.8525691592       11.1543708736
  C         7.5355107107        6.0820449058       12.7583438737
  C        10.0460116354        4.3982920509        5.7084036054
  H         9.4541815186        6.0797840370        6.8513648824
  C        10.5775281123        2.6605382987        4.5684802419
  H        12.8257693971        2.3258902221       11.2068596556
  H        12.0343923236        0.7808540401       10.8108282979
  C        11.4344118972        1.9181970102       12.6988363667
  C         7.6067116694        7.4733496231       12.9892165933
  C         7.0614065888        5.2899194030       13.8853156702
  C        10.6185629325        5.1000677259        4.5208151388
  C        10.8837652226        3.7457197733        3.8080616758
  S        10.9390042580        1.1823720379        3.8537143853
  H        11.5049616208        3.0111859811       12.9512811255
  H        10.3380740702        1.7738344850       12.7139340211
  C        12.1576283290        1.0600059449       13.7140116256
  N         7.9494239820        8.4000377926       11.9891396287
  C         7.2476587789        8.0512528791       14.2113729400
  C         6.7100346796        5.8649565098       15.1397259341
  H         6.9214321750        4.1733241104       13.8685395374
  C        11.8887700177        5.9369452415        4.7832570882
  C         9.5335030630        5.9089387839        3.7170941221
  C        11.4095961706        3.3543376837        2.5815073490
  C        11.5185585693        1.9709101096        2.4426678898
  H        13.2775660804        1.1279257481       13.4868771925
  H        11.9992481279        0.0179347009       13.7485718715
  C        11.8633854749        1.5253674453       15.1380684042
  S         7.9128374494        9.8676219186       12.7085706909
  N         7.4145129104        9.4165084438       14.2026285372
  C         6.9320137643        7.2952246170       15.3756602691
  H         6.2577272918        5.2689811878       15.8900054107
  H        11.7035959769        6.3621509300        5.7234501540
  H        11.9326589921        6.6952401262        4.0686870195
  C        13.2100053149        5.1931664123        4.8616500787
  H         9.2527827401        6.7980658906        4.3112103495
  H         9.9595615711        6.2334848965        2.7963380587
  C         8.2311168142        5.0878078583        3.4471673731
  H        11.6005016900        4.1052758337        1.8323870004
  C        11.8025274367        1.2904656193        1.1862384403
  H        11.3479719244        2.5096698323       15.1149107600
  H        11.1077835046        0.9291217821       15.5895609611
  C        13.1182755770        1.5038575780       16.0027041591
  C         6.7095921043        8.0197809434       16.6077873480
  H        13.1217228479        4.4682111366        5.6480630688
  H        13.5262801477        4.7120400978        3.9173233544
  C        14.2881014262        6.2515497434        5.3051236550
  H         7.8025211206        4.6343968152        4.3380685040
  H         8.4872185420        4.2143659059        2.8328103353
  C         7.2625634625        5.8996681849        2.5590688154
  C        11.8328559089       -0.1215148966        0.9639303210
  C        12.1958026719        2.0965390081       -0.0102315479
  H        13.8954006308        2.0858077781       15.5319832687
  H        13.5175963064        0.5134493524       16.1066674710
  C        12.8995887711        1.9920463284       17.3916885814
  H         6.3468524056        9.1055942484       16.4770278008
  C         6.2935838521        7.5532562012       17.8197764577
  H        13.9493386503        6.6382397432        6.2722173391
  H        14.3426574361        7.1032962237        4.5962222368
  C        15.7009701484        5.6923917968        5.3547829157
  H         7.1161154613        6.7513671564        3.1796411935
  H         7.6845592780        6.2688637580        1.6590182435
  C         6.0170478897        5.0368591270        2.1998674050
  N        11.5488836371       -1.0530304457        1.9963784157
  C        12.0910454048       -0.7749958510       -0.2597157013
  C        12.5224294294        1.4048381619       -1.1938164843
  H        12.1741151845        3.1730871656        0.0916424833
  H        12.9839890050        3.1182340876       17.4159551346
  H        13.5188799163        1.3905701150       18.1046068250
  H        11.8352442851        1.7665562826       17.6307727898
  S         5.9588296971        5.9146252256       18.3437503938
  C         6.0737502578        8.5168018350       18.9126458654
  H        15.6676365935        4.6686551441        4.9587046589
  H        16.3822379979        6.2316168422        4.7374392403
  C        16.2491616612        5.6970527435        6.8283157367
  H         5.4281956982        4.8079000747        3.0602798680
  H         6.3661972931        4.1814720320        1.7144391358
  C         5.0628507029        5.8567921421        1.2268656255
  S        11.5127359400       -2.5256266482        1.3126122556
  N        12.0475113888       -2.1260931352       -0.2090970325
  C        12.5077472478       -0.0225087406       -1.3590218215
  H        12.7957995071        1.9835768042       -2.0894972209
  C         5.6786689099        6.5968699619       19.9880600609
  N         5.7527517475        7.9194420797       20.0605529939
  O         6.3012303524        9.7300788633       18.8006950475
  H        16.3917393448        6.7250525117        7.2477403123
  H        15.4863010385        5.2381283500        7.4838187785
  C        17.5587952225        4.8799593601        6.9024216048
  H         5.4279382413        5.9814442837        0.2072366295
  H         4.1922262721        5.2010355491        1.0282886752
  C         4.3713205474        7.0734584625        1.8016369185
  C        12.7481887061       -0.6371586889       -2.5961567280
  S         5.2903355315        5.5641048231       21.3475414647
  C         5.8740523435        8.7080512683       21.2713208007
  H        17.6513927987        4.4430804455        7.8818424759
  H        17.3115018354        4.0355828233        6.2368551348
  C        18.7835228236        5.7461494942        6.4453554911
  H         4.8429985531        7.4090322180        2.6932696981
  H         3.3431975306        6.8789938108        2.1994566156
  C         4.2870466710        8.2376752020        0.8115996475
  H        12.5544002863       -1.7127053455       -2.5148088070
  C        13.2861245262       -0.2009071617       -3.7653010434
  H         5.1969490939        8.3661956420       22.0447668506
  H         5.5472772243        9.7020453460       21.1265201985
  C         7.3155556645        8.5727664574       21.7751984121
  H        19.4589838921        5.9056210203        7.3276158241
  H        18.5105727225        6.7199473888        6.1449759630
  C        19.6193876643        5.1583639836        5.3133314118
  H         4.8810352517        7.9430970455       -0.0844804658
  H         3.1987484333        8.4068477720        0.6204466521
  C         4.8851210686        9.4741473608        1.3945226051
  S        13.8630390049        1.3412454967       -4.3082796013
  C        13.2834252398       -1.2595270040       -4.7677425700
  H         7.9354188464        7.9328920053       21.0974147192
  H         7.5198619067        8.2778024730       22.7707582492
  H         7.8705420272        9.5063518213       21.6753626124
  H        19.0891735607        5.1860224391        4.3838272934
  H        20.6356851423        5.5919406012        5.3254969914
  H        19.6962101983        4.1124196426        5.5273693413
  H         5.9285105878        9.2546644344        1.6554318816
  H         4.8031002137       10.3064722525        0.6675870559
  H         4.3540462079        9.7993187766        2.3209323168
  C        14.2584978985        0.5038993663       -5.8684761834
  N        13.9279223012       -0.8122201102       -5.8628226832
  O        12.8872305281       -2.3854900064       -4.5496216349
  S        15.1970983920        1.1204901592       -7.2251663735
  C        14.0273689021       -1.6236808189       -7.0823900396
  H        13.7377572159       -2.6937023116       -6.8744419295
  H        15.0275325342       -1.6174142937       -7.5752566390
  C        12.9151690264       -1.1547293627       -8.0291029410
  H        13.3697169449       -0.4239001529       -8.7475561860
  H        12.0194517994       -0.8647996943       -7.5474152320
  H        12.6853290655       -1.9055317513       -8.7221864838
