352
 i =    14600, time =     7300.000, E =       116.6325235549
  H        10.5103447221        4.3199732769       32.5085700165
  C        10.5760217187        5.3831642144       32.8112121646
  H         9.9040346423        5.5408053827       33.6607372432
  C        10.3361344552        6.2088778705       31.6182346516
  C        11.9069290430        5.6553220007       33.4070052524
  C        10.6194021574        5.3329511853       30.3131018160
  H         9.2998732046        6.5210916333       31.6880868415
  H        10.9405273199        7.0315799912       31.6363643564
  H        11.8567718583        6.2440138206       34.3057544095
  H        12.4571881448        4.7462856824       33.6383363137
  H        12.6119130627        6.0713568397       32.6961945876
  C        10.3426448519        6.2722769257       29.1291632456
  H        10.0325556693        4.4198710645       30.1597856315
  H        11.6536653018        5.0760041936       30.1041776776
  C        10.6834624113        5.6575314194       27.6292315773
  H         9.2822170158        6.5612070178       29.1933577944
  H        10.9863988363        7.1520777228       29.3452454070
  C         9.5055756675        4.8421826451       27.0128108285
  H        11.6314202571        5.0458505454       27.5965836471
  H        10.9227195602        6.5007382934       26.9546499207
  C         8.5839959302        5.7991707403       26.2564545949
  H         9.8190194847        4.2195952944       26.2251827741
  H         9.0872725288        4.3214134270       27.8534984213
  C         7.3713453506        5.0985190665       25.6260480632
  H         8.1554053028        6.5758506971       26.8921569963
  H         9.1887525652        6.4255771231       25.5521146555
  C         6.9575652136        3.7835957381       26.2069630121
  C         7.8061655976        4.4626107812       24.3285956389
  C         6.0830024835        6.0433920174       25.5318522541
  C         7.2022300726        2.6762468411       25.4068618947
  C         6.4256848512        3.3622117208       27.4667664944
  C         7.7514998369        3.1173992506       24.2294667650
  C         8.3551653495        5.0475835749       23.1460708127
  H         6.2938295292        6.8881216595       24.8169958121
  H         5.8215697025        6.6670132005       26.3695710916
  C         4.8134622809        5.3313016888       24.9549539577
  S         6.8206785246        1.2067856368       26.1753977009
  C         6.2519886929        2.0375374477       27.5857685008
  H         6.2508262696        4.1637532624       28.1162607250
  C         8.1520497790        2.4496532555       23.0910571715
  H         8.3615953456        6.1128147341       23.0356101359
  C         8.8267166454        4.3777581593       22.0448390247
  H         4.9707109403        4.8964164823       23.9647465813
  H         4.5341282845        4.4862044177       25.5322653937
  C         3.5644098015        6.1648608937       24.7553808417
  C         5.7904323421        1.2421682959       28.8296874098
  C         8.6941712982        3.0572927982       21.9020701663
  H         8.1864291326        1.3563375993       23.1681997191
  C         9.1798984730        4.7741633447       20.8030655827
  H         2.9756827407        5.4954497364       24.0638033272
  H         3.7686769360        6.9704367411       24.1357398821
  C         2.9592932292        6.6056284534       26.0998793383
  C         5.8018491462       -0.1376368361       29.0606282039
  C         5.3350276319        2.1150595237       29.9523335060
  C         8.9458998309        2.2912382783       20.6347576323
  C         9.2288432252        3.6752078664       19.9843872548
  S         9.4567416301        6.2217362472       20.0250130699
  H         2.1632946943        7.2207139308       25.6973302789
  H         3.6147226178        7.2033256171       26.7826461055
  C         2.2406752184        5.4659158382       26.7821663059
  N         5.9954008684       -1.1171539404       28.0602990967
  C         5.4583504279       -0.6925082486       30.2928950325
  C         5.0778535183        1.5257771066       31.2328721683
  H         5.4405290355        3.1659070115       29.8567861310
  C         7.6987145911        1.6029124705       19.9831787796
  C        10.2125178623        1.4508527299       20.6592656476
  C         9.5827044313        4.0257220144       18.6736255213
  C         9.6068153245        5.3509534510       18.5321127516
  H         1.8425963732        4.7578876615       26.1045938540
  H         3.0982035444        4.9730058054       27.4394800737
  C         1.1222612337        6.0980983148       27.6072490567
  S         5.8401133675       -2.5899681927       28.7303840032
  N         5.6223226465       -2.0788694187       30.3120646292
  C         5.1591303400        0.0824561801       31.4262984678
  H         4.8292280688        2.2747471179       31.9634660370
  H         7.3068905569        0.9737601647       20.7911976374
  H         8.0683481770        1.0369183841       19.1473593733
  C         6.6323819245        2.6157401847       19.5051395483
  H        10.4418026564        1.0339093807       19.7073675125
  H        10.0050544883        0.6119700903       21.2644583776
  C        11.4724513069        2.0520787097       21.2435290839
  H         9.9535656725        3.2199109750       17.9916845015
  C         9.8699362107        6.0886746198       17.2307813912
  H         0.3964954045        6.6231315457       26.9163377309
  H         1.4521387683        6.7932391340       28.3315509299
  C         0.4822244712        5.0599713199       28.5961454209
  C         4.9167268518       -0.5991792956       32.6634103325
  H         7.0608521604        3.2024411004       18.6302565504
  H         6.1665581327        3.3260944433       20.2091840794
  C         5.4625217544        1.8618777380       18.9276797757
  H        11.2200491671        2.3413620581       22.2443470585
  H        11.5216885312        2.8572412028       20.5895700702
  C        12.8520067187        1.3464373132       20.9298898638
  C         9.7942905219        7.5248130518       17.0417470231
  C        10.1767608959        5.3007952672       16.1244900459
  H        -0.5550716540        5.2859962406       28.6740232942
  H         0.5821045209        4.0356958017       28.2651296094
  C         0.9353643262        5.1820270354       30.0374154523
  H         5.1314913280       -1.6628052867       32.6265512864
  C         4.6428923139       -0.0956377995       33.9047169056
  H         5.4223081763        0.9904922831       19.4967707688
  H         5.7878121075        1.5254348963       17.9956593987
  C         4.1012426029        2.6328928930       18.9447411060
  H        12.7328532249        0.3574846039       21.3523545475
  H        12.8408878619        1.2068791881       19.9216007379
  C        14.2006571926        1.9554583232       21.2819187352
  N         9.5120369404        8.5675689692       17.9919074762
  C        10.0901906366        8.1838479066       15.8639631839
  C        10.5367873170        5.9369966380       14.9161483598
  H        10.3339811656        4.2182249227       16.2110872684
  H         0.2519217711        4.5208217648       30.5957875397
  H         1.9590438533        4.7357085521       30.0555338828
  H         1.0232758959        6.1692577505       30.2874700700
  S         4.3968742245        1.4707633950       34.3877032699
  C         4.5161174513       -1.1188516690       34.9538746624
  H         4.1493531848        3.3652684769       19.7071681759
  H         3.9799535671        3.1697023620       17.9834877734
  C         2.8371491877        1.8130745305       19.1964623785
  H        14.4216087204        2.7587283424       20.6022803063
  H        14.8801839353        1.0848334610       21.1333942921
  C        14.1048206269        2.4888199269       22.7117328797
  S         9.5948859665       10.0237384683       17.3479720239
  N        10.0307201845        9.5684591434       15.8497334381
  C        10.5430574926        7.4737136751       14.7392885043
  H        10.9140022033        5.3578896992       14.0659287972
  C         4.1425208796        0.7915253575       36.0187682116
  N         4.1764486418       -0.5285633945       36.1138612014
  O         4.5446380000       -2.3187968878       34.7416517757
  H         2.0293062642        2.5710025594       19.4683232836
  H         2.9391340191        1.3435530499       20.1378968890
  C         2.5346668733        0.8399784037       18.0999150404
  H        13.5317144648        3.3237895343       22.5932289892
  H        13.6201114174        1.8540579329       23.4617575109
  C        15.4208592418        2.9789448146       23.2074792255
  C        10.8600572628        8.1399109704       13.5249872103
  S         3.5607078120        1.6340060655       37.3830000236
  C         4.2021899014       -1.2039796402       37.4056612958
  H         2.0921063793        1.2373064042       17.1467324955
  H         3.6015577161        0.5016971879       17.7749981772
  C         1.8089534443       -0.4089772964       18.6427863689
  H        15.1666710015        3.3404308458       24.2537656394
  H        15.8416228213        3.7772257919       22.6247185502
  C        16.3834785422        1.9073156810       23.3362101677
  H        10.7676986783        9.2629480109       13.5955452433
  C        11.4056588490        7.7622433200       12.3484675600
  H         3.4345228412       -0.7029501976       38.0486691721
  H         3.8960930666       -2.2092230317       37.2904748549
  C         5.6158655400       -1.0528681786       38.0328733919
  H         0.8404848903       -0.1634887174       19.0028494750
  H         2.3232795604       -0.8409833716       19.4520862534
  C         1.7213107189       -1.3971960763       17.4770047972
  H        16.6990349343        1.9448049778       24.3771970733
  H        15.8601541781        0.9255771425       23.3031967900
  C        17.6722713644        1.9999848015       22.4344832571
  S        11.8436249496        6.1396510449       11.7992492057
  C        11.6510003456        8.7384457340       11.2410141823
  H         6.3587088455       -1.5400286916       37.3738771039
  H         5.9076420505       -0.0163477218       38.2236772954
  H         5.7376042632       -1.6574003542       38.9945203881
  H         1.1741430141       -2.3210512910       17.6978400901
  H         2.7169536769       -1.7235579966       17.1226447411
  H         1.3735033701       -0.8623646814       16.6017028650
  H        18.3088980178        2.8188406297       22.6917108118
  H        17.3539341573        2.0124442585       21.3478645798
  H        18.3050394757        1.1950024392       22.6186845555
  C        12.4102662179        6.7867936205       10.2739200618
  N        12.2491235354        8.1232603950       10.2052537078
  O        11.2555981302        9.9509920852       11.2766656800
  S        12.8398825474        5.8152099038        8.8334985521
  C        12.4521119752        8.7764800651        8.9839458980
  H        12.7478248899        9.8108360436        9.1587658508
  H        13.4263522993        8.4575587370        8.6286636737
  C        11.3178427001        8.7513893877        8.0071764347
  H        11.4031772461        7.7471833744        7.4617113336
  H        10.3822660494        8.8352626039        8.5804154369
  H        11.2381485824        9.6150193438        7.2776074932
  H         4.8755745175        1.8908083941       12.5682420572
  C         4.0391017989        2.5959102445       12.7959805120
  H         4.6121377013        3.5431396067       12.8780879714
  C         2.9996917210        2.5574664662       11.6730470961
  C         3.4038859072        2.3835432655       14.1781320067
  C         3.5745439754        2.6537291729       10.2485057192
  H         2.4168930603        3.4635367877       11.6987073832
  H         2.2196181152        1.7036152200       11.7656319582
  H         3.2400334824        1.3303436613       14.2225960141
  H         2.4402462270        2.9289410343       14.2777445305
  H         4.0204224500        2.5326787977       15.0241958473
  C         4.3469707917        1.3776577989        9.8482337870
  H         2.8310172373        2.9227664898        9.4835547002
  H         4.3108811287        3.5213380428       10.2746635072
  C         5.0467839989        1.5194818161        8.4894672454
  H         3.6841047789        0.5067787688        9.6963763957
  H         4.9787693855        1.0921587281       10.6799251571
  C         6.2883476295        2.4321972853        8.3075128975
  H         4.2643820402        1.9544101386        7.8038659283
  H         5.3725108938        0.5960431625        8.0739823941
  C         7.4235463260        1.7846556243        9.1152653841
  H         6.4179137398        2.5729775575        7.2396196794
  H         6.0686230026        3.4138629899        8.6929510787
  C         8.6695268191        2.7860828104        9.2416902606
  H         7.7084248630        0.8430514466        8.5161339248
  H         7.1045121372        1.3445455148       10.0823595659
  C         8.3124461672        4.1222612174        9.9340738107
  C         9.1211279995        3.5097123208        8.0072230334
  C         9.8845195935        2.0971569241        9.9251205544
  C         8.7162787728        5.1984057634        9.2291294215
  C         7.7199348272        4.5384872377       11.1536201537
  C         9.1211445376        4.8497707350        7.9737415136
  C         9.6584756965        2.8323305736        6.8808968022
  H         9.4930301596        1.7335529731       10.8723889363
  H        10.3170946791        1.2104135135        9.4743659437
  C        11.1067704580        2.9314887484       10.2729464753
  S         8.3244931293        6.6594952164        9.9777038121
  C         7.7890057393        5.8642446159       11.4316780987
  H         7.5271479006        3.8143396141       11.8486122661
  C         9.5346439252        5.4530548688        6.7871622450
  H         9.7412701470        1.7998199132        6.9419792354
  C        10.0552229497        3.4273590033        5.7497775592
  H        10.8663386572        3.9822270844       10.3910950507
  H        11.8107522200        2.8224128412        9.4534588423
  C        11.9272740799        2.3117826388       11.4144292284
  C         7.4441907647        6.5456073864       12.6942915909
  C        10.0756430292        4.7935894153        5.6690263653
  H         9.4630512740        6.5179595570        6.6658433771
  C        10.5150495737        3.0134360111        4.5306361121
  H        12.9228605483        2.9180714360       11.4894948985
  H        12.3306382851        1.3026501251       11.1374550420
  C        11.0843435716        2.2781457512       12.6413785908
  C         7.5118972202        7.9663732779       12.8495935171
  C         7.0542805354        5.7798943940       13.8837036275
  C        10.5052555752        5.4203107834        4.3242742595
  C        10.7038967837        4.0717209605        3.6632163712
  S        10.7406228189        1.5076999741        3.8276409525
  H        10.3327230590        3.0950845161       12.4663499649
  H        10.4911620798        1.3960645419       12.7327609797
  C        11.8842008446        2.5335035043       13.9730277731
  N         7.9528591602        8.8733568137       11.9292912427
  C         7.2169050499        8.5781219896       14.0826148416
  C         6.7615402558        6.3991843156       15.0614383912
  H         6.8294897001        4.7803857408       13.6839550712
  C        11.7599905207        6.2677117030        4.5459285286
  C         9.3322062633        6.1869590993        3.7189008179
  C        11.0014519017        3.6392135248        2.3799750901
  C        11.1314221881        2.2382359408        2.3252603292
  H        11.1899817511        2.7824310971       14.7317499504
  H        12.6198203805        3.3609623099       13.8703106825
  C        12.6587436026        1.3058669954       14.5122848225
  S         8.0080279505       10.3961470959       12.6051071198
  N         7.5042703687        9.9527871389       14.0693141583
  C         6.8471973363        7.8849335312       15.2135859631
  H         6.3445269403        5.7796441209       15.8444211598
  H        11.5955208706        6.9799661800        5.3871657061
  H        11.8622061260        6.8051469604        3.6155187187
  C        12.9951917507        5.4115191794        4.8482391801
  H         9.3085601492        7.2584189021        4.1091125342
  H         9.5928901288        6.3204547472        2.6751327668
  C         8.0480497414        5.4624327181        3.8134336799
  H        11.1511647484        4.3691712832        1.6301853913
  C        11.5516159291        1.4808738416        1.1023592242
  H        11.9466786606        0.4784756454       14.7181225743
  H        13.2920678458        0.9755173890       13.7321089222
  C        13.5453290710        1.6347849499       15.7830216283
  C         6.6878656549        8.5728516448       16.5055835886
  H        12.7605090882        4.8056822742        5.6783827948
  H        13.1581095293        4.6663192348        4.0528146559
  C        14.2877257155        6.3516489440        5.1551884423
  H         7.7593307808        5.2814833321        4.8481081188
  H         8.1965512480        4.3949528911        3.5031585488
  C         7.0276201986        6.1124532061        2.8459754113
  C        11.6234119976        0.0985570282        0.9768928903
  C        11.6946786609        2.2572513472       -0.2225890263
  H        14.2666234464        2.3727184910       15.4972517351
  H        14.1905904911        0.7539601860       16.0386425916
  C        12.7801159420        2.1243275900       17.0941564316
  H         6.7640887423        9.6488891980       16.3946037513
  C         6.2713182972        8.2153402433       17.8112082465
  H        14.2500193455        6.9297931663        6.0775310453
  H        14.3743719330        7.0646011531        4.4090010105
  C        15.5793121679        5.6010874342        5.3264301617
  H         6.8743285576        7.1353533150        3.1265260192
  H         7.3975767837        6.1640939666        1.8362627043
  C         5.6610134181        5.4334973032        2.7932086336
  N        11.4584491742       -0.7712811602        2.0311031580
  C        11.8153541953       -0.5046839794       -0.2930977719
  C        12.1255120950        1.6357646383       -1.3882514858
  H        11.7439749349        3.3538167882       -0.2050957424
  H        13.3912722919        1.8947806205       17.9245297307
  H        11.7468303330        1.6918699137       17.1585640087
  H        12.7286371476        3.1875096759       17.0506032257
  S         6.0911179452        6.5661748078       18.4603197087
  C         6.1986792331        9.2623160756       18.7974593541
  H        15.4978810665        4.6081123765        4.8487718880
  H        16.3058021159        6.1807903042        4.7555341048
  C        16.0755903418        5.5126031355        6.7977109439
  H         5.2717419715        5.2080088347        3.8177483309
  H         5.9731865455        4.5213707127        2.2786575130
  C         4.7620207404        6.2924602487        1.8578672567
  S        11.5651407158       -2.2568414534        1.3948673229
  N        11.7990104137       -1.8872148591       -0.1745290414
  C        12.1229964929        0.1797760145       -1.5095052495
  H        12.2071846406        2.1949855458       -2.2835873554
  C         5.7186280405        7.4131936824       19.9415649835
  N         5.9082478786        8.6919724361       19.9651148756
  O         6.4681521389       10.4511473663       18.5953430021
  H        15.9994650572        6.5143212318        7.2204516183
  H        15.2482909935        4.9575155787        7.3689860980
  C        17.4746780955        4.9237959949        6.7889841524
  H         5.2501986070        6.6345889446        0.9049152043
  H         4.0593861662        5.6377567016        1.3225619401
  C         3.9032396932        7.2818480146        2.6395366650
  C        12.5925724015       -0.5471629370       -2.6041420444
  S         5.5584099708        6.6579726870       21.5098942679
  C         6.1464174051        9.6007861478       21.2050408739
  H        17.4849371856        4.3415588786        7.7086198495
  H        17.5245202380        4.2505890975        5.8815845529
  C        18.5928711786        5.8968110365        6.8858637499
  H         4.3114345685        7.6562718136        3.5970187153
  H         2.9966175882        6.8145733226        2.9950435046
  C         3.5549554870        8.5017047445        1.8626059618
  H        12.3449400060       -1.5392791940       -2.5594573474
  C        13.1257915294       -0.2844405227       -3.8490159903
  H         5.6387235466        9.4169733504       22.1403337102
  H         5.6691469066       10.5865012384       20.9404068105
  C         7.6147885537        9.6184597778       21.4502429203
  H        19.1417241589        5.4878239191        7.7223620464
  H        18.2949893190        6.9151601036        7.2325879677
  C        19.4028939330        5.8636625322        5.6492837660
  H         3.0825113264        8.3341687238        0.8816187614
  H         2.8501941080        9.0699317151        2.3928891170
  C         4.7216995141        9.4307571344        1.5046311391
  S        13.6323458935        1.3431396735       -4.4133181658
  C        13.4572948714       -1.3782589344       -4.7122931748
  H         7.8421189501        9.7566758717       22.4716349778
  H         8.0376765756       10.4213120771       20.8417191322
  H         7.9620458404        8.5927262407       21.1853635306
  H        20.2634910130        6.3842516769        5.9834383031
  H        19.6923978825        4.8364794769        5.3034513498
  H        18.9879081750        6.4714490034        4.8437975686
  H         4.4908642979       10.4313269715        1.8761922491
  H         5.5639174708        9.1862793687        2.1343469440
  H         5.1084265579        9.3986664370        0.4898729243
  C        14.4035227048        0.3902518535       -5.7923637883
  N        14.1499478232       -0.9481173013       -5.7755060908
  O        13.1737722651       -2.5708904968       -4.5152679517
  S        14.8335467441        1.1250655094       -7.3413723055
  C        14.3695845782       -1.8096462499       -6.9288636800
  H        14.5713282943       -2.8376309454       -6.6223613908
  H        15.3416176861       -1.5543198353       -7.3416443034
  C        13.1489981836       -1.7641578176       -7.9157207743
  H        13.5168382995       -1.8729889901       -8.9796006413
  H        12.5817019055       -0.8602408430       -7.7323290196
  H        12.4564776136       -2.6260117956       -7.8051623209
