352
 i =    84300, time =    42150.000, E =        98.2190095745
  H        12.3104879838        6.6007189569       32.5498156402
  C        11.7656174758        5.6852458695       32.6309899489
  H        12.4206970408        4.8682562972       32.6276761519
  C        10.7379448129        5.6536808467       31.4841196315
  C        11.0543887286        5.6518271169       34.0127523841
  C        11.2709464885        5.8723783711       30.0325898742
  H        10.3226744110        4.6739653454       31.3755110789
  H         9.8404945419        6.3249981055       31.7393470596
  H        10.5095950540        4.7701005582       34.2360951999
  H        11.8770632133        5.6360506851       34.7702701482
  H        10.4540437965        6.5074420922       34.2581322945
  C        10.2625751041        5.6202080568       28.9338097938
  H        12.1497271829        5.2369632971       29.9118211015
  H        11.6804128100        6.8648756928       29.9110776116
  C        10.7585226939        5.9126100088       27.4976229810
  H        10.1362397206        4.5708098590       29.0255702369
  H         9.3255999081        5.9695069767       29.1599639440
  C         9.6264517717        5.3110745867       26.5586692575
  H        11.6582304885        5.2777438668       27.3646431171
  H        10.9764202800        7.0227117503       27.2928965680
  C         8.4490797644        6.1941419423       26.2703002504
  H         9.9464780303        4.9887019786       25.6232646469
  H         9.2241209937        4.4583125055       27.1321733101
  C         7.2220041800        5.4139759913       25.6307353354
  H         8.1441587128        6.7619954424       27.1919128520
  H         8.9111632397        6.9421143038       25.6176210853
  C         6.9150840765        4.1050855634       26.4063451428
  C         7.6325101469        4.6206944144       24.4614451521
  C         6.0426584708        6.3875985256       25.3125561506
  C         7.1028987987        2.9913499810       25.6437102489
  C         6.2786742946        3.7898686404       27.6635364897
  C         7.6421968991        3.2667098620       24.4077984852
  C         8.0874017056        5.2243240559       23.2953775003
  H         6.3003179719        7.2062800192       24.6014006011
  H         6.0046216665        6.9921465935       26.2081109666
  C         4.7948468221        5.7511837579       24.6950155512
  S         6.7977170589        1.5191753269       26.3767886078
  C         6.3190195639        2.3995992230       27.8201045561
  H         5.9626371188        4.5820634486       28.2967705797
  C         8.0955163593        2.5753448420       23.2915841280
  H         8.0826609127        6.2520467590       23.2740147619
  C         8.6003883833        4.5655019331       22.2144217719
  H         5.0248532100        5.5047280339       23.7001862791
  H         4.5876441944        4.7833233069       25.2615082315
  C         3.5382710542        6.6829617073       24.6750661691
  C         5.8594519497        1.6895969755       29.0894572995
  C         8.6535564295        3.2012171909       22.1578397402
  H         8.1073267581        1.5112935905       23.3154481033
  C         9.0927012164        5.0149022890       20.9553216435
  H         2.7557882500        6.4736002888       23.9362348658
  H         3.7820131370        7.7147440091       24.4088067442
  C         2.8835884424        6.7449006423       26.1025311638
  C         6.0323601003        0.3060355849       29.4121486418
  C         5.2746819906        2.5167999061       30.1500302164
  C         9.1353335393        2.5553824107       20.8832231914
  C         9.3469933720        3.9281951613       20.1621365592
  S         9.3590805039        6.5633540349       20.0923539188
  H         2.2480250915        7.7016833954       26.1491185464
  H         3.7042342140        6.9041084993       26.7425184100
  C         2.0223659161        5.5797175556       26.5317656352
  N         6.4546219403       -0.6274583898       28.4713358419
  C         5.7463028559       -0.2505324753       30.6112377631
  C         4.9664344690        1.9775843866       31.4281696729
  H         4.9792260905        3.5290856674       29.9880926329
  C         8.1039583473        1.6335975184       20.1912399962
  C        10.4108707299        1.6962473048       21.0224102350
  C         9.8647657988        4.3172012094       18.8833330771
  C         9.8672764716        5.7244164428       18.6876309477
  H         1.2720778980        5.3265209741       25.7481014866
  H         2.5358942936        4.6977278435       26.6711652141
  C         1.4580643608        5.7267413474       27.9492424139
  S         6.4990537457       -2.1025552968       29.1846555190
  N         6.0021435857       -1.6036927687       30.6811469170
  C         5.2959868988        0.5218911616       31.6957060409
  H         4.4674667943        2.5137115481       32.2673233419
  H         7.9671655523        0.7015956619       20.7735056979
  H         8.4416423239        1.2777879919       19.1977359907
  C         6.6234790443        2.1333786310       20.0833174549
  H        10.3994892091        0.9722605912       20.1495750369
  H        10.2680851902        1.1565295342       21.9642608862
  C        11.7099229312        2.4673369927       21.1435425302
  H        10.1001099972        3.5013690415       18.1944134260
  C        10.1579624676        6.3555971935       17.3539243235
  H         0.6587029932        4.9079939142       28.0618530640
  H         0.8511440545        6.6418563006       27.9028942070
  C         2.5971050618        5.7341354326       28.9829663419
  C         4.9002295330       -0.0510707249       32.9656582220
  H         6.7914774558        3.1870144493       20.3029403946
  H         5.9708380449        1.8254007601       20.8801970462
  C         6.0742931619        1.9717587688       18.6246721482
  H        11.6510119162        3.0423037986       22.0397604632
  H        11.8419921350        3.0883261804       20.3348707641
  C        12.8662310585        1.4987028555       21.1469737534
  C        10.0922971960        7.7645388529       17.1065610504
  C        10.3751097367        5.4769209685       16.1998460531
  H         3.0970695361        4.7820004032       28.9580950189
  H         3.3231005117        6.5842772048       28.8687070718
  C         2.0253655567        6.0947941154       30.3630412517
  H         4.8914512709       -1.1268726397       32.9241121290
  C         4.8072425632        0.4583989019       34.2596511616
  H         6.3853883767        1.0548769703       18.0610443521
  H         6.4087676250        2.8281814014       18.0151310524
  C         4.5742497669        1.9652290896       18.4326584928
  H        12.5632525856        0.8785617989       21.9719973846
  H        12.7588610361        0.8735514993       20.2872760889
  C        14.2851064312        2.1622459409       21.1590768009
  N         9.7945842333        8.7452232996       18.0644596509
  C        10.3665015031        8.2868168195       15.8590761989
  C        10.3569923272        5.9804675094       14.8985432309
  H        10.4548810754        4.3941109761       16.3061757586
  H         1.5892320258        5.2841759507       30.9251358620
  H         2.7748038203        6.6271226108       30.9563054555
  H         1.2424881970        6.8582193638       30.1781830069
  S         4.6335078581        2.0772625457       34.7144617942
  C         4.8050924429       -0.5062495552       35.4040123674
  H         4.2440118989        2.7994106790       19.0688765708
  H         4.2253505890        2.1161313150       17.3582133389
  C         3.9234812766        0.6799216466       18.9376723307
  H        14.4017651322        2.9446537731       20.3865828617
  H        14.9701576003        1.3123644512       21.0340133360
  C        14.7113263469        2.8217917546       22.4182074264
  S        10.1682241923       10.1657027750       17.3419505045
  N        10.5686256902        9.6232587156       15.8437675191
  C        10.5004979341        7.4514550578       14.7271379771
  H        10.6129569424        5.4276224255       14.0880266874
  C         4.2674632629        1.3858326945       36.3372788257
  N         4.3443478479        0.0729053690       36.4588540664
  O         5.0174855829       -1.7249189295       35.2616533834
  H         4.0419168921        0.7059427891       20.0486014818
  H         4.4502472643       -0.2691614707       18.6615771617
  C         2.4889266024        0.5514324619       18.5580283302
  H        14.2001481238        3.7588659738       22.5485110844
  H        14.5714247051        2.1312640711       23.1569938947
  C        16.1971299790        3.2329943524       22.3691041392
  C        10.7847013622        8.0816255699       13.5017894279
  S         3.8219047673        2.4683823132       37.7207142223
  C         4.0855944355       -0.6500788610       37.7161495584
  H         1.9970673232        1.1659408422       19.2520720987
  H         2.1999099391        0.8151682977       17.5279493991
  C         2.0534127793       -0.9164590090       18.7803654262
  H        16.2235025259        4.1588247723       22.9297616166
  H        16.5520040932        3.5733966062       21.4251675414
  C        17.1409086659        2.1686471278       22.8177074844
  H        10.5156650111        9.1047843437       13.4047699887
  C        11.4383070664        7.6269937216       12.3577593904
  H         3.5353274685        0.0660086670       38.2978252037
  H         3.3811429191       -1.4958919531       37.5800503172
  C         5.4073904046       -1.0550938391       38.3115757902
  H         0.9724982009       -1.0499295633       18.9594347954
  H         2.6100319943       -1.2851407604       19.6040202629
  C         2.4186342460       -1.8904555506       17.6505619569
  H        16.9243748397        1.2262062560       22.2257390351
  H        18.1150103279        2.5129979508       22.4674583256
  C        17.0372261368        1.9791840148       24.3317374335
  S        12.1081070657        6.0105824352       12.0366164370
  C        11.5897834139        8.5742303493       11.2777759283
  H         5.3362216897       -2.0117202416       38.8316213786
  H         6.2817383916       -1.0817684060       37.6580989033
  H         5.4854803828       -0.2685055122       39.0430197303
  H         1.8962825570       -1.4281206978       16.7911664316
  H         2.0995473447       -2.8699994143       17.9519855047
  H         3.5082863298       -1.9331570618       17.4713074463
  H        16.8286059643        2.9276202861       24.8595876682
  H        17.9128170304        1.4888160312       24.7376880835
  H        16.1892637648        1.3234763009       24.5719105556
  C        12.3731331820        6.6192924814       10.3910586827
  N        12.1385238172        7.9538231257       10.2360393065
  O        11.1331968653        9.7365091476       11.2022892779
  S        13.1154333501        5.7817122463        9.0949602686
  C        12.3478292931        8.6542251269        8.9854708762
  H        12.6189169277        9.6734273750        9.3812627767
  H        13.2433194538        8.2972497907        8.4211378907
  C        11.1381301243        8.6155331908        8.0389755397
  H        11.3403718001        8.2666168550        6.9824782839
  H        10.3798817705        8.0199094703        8.4276358317
  H        10.7483810883        9.6458225813        7.9631435757
  H         4.2529255366        0.8003544922       12.4392558033
  C         3.9495806721        1.8058496788       12.5879560574
  H         4.8713017112        2.3160256475       12.7837952439
  C         3.2530679952        2.3036495155       11.3251366894
  C         3.1799617741        1.8917404531       13.8880304667
  C         4.2872439017        2.4781416880       10.2280242472
  H         2.7014587077        3.2856024506       11.3546133684
  H         2.4283081211        1.6111763079       11.1849860463
  H         2.3527735282        1.1648513870       13.9012286063
  H         2.7145973501        2.8918098646       14.1243021211
  H         3.7691278916        1.6157391035       14.7691895968
  C         4.7479036545        1.1789414680        9.6302043670
  H         3.8454893617        3.0955717384        9.4347795615
  H         5.1282369695        3.0265012716       10.6777873811
  C         5.5254850039        1.2919343464        8.3429317899
  H         3.8574717257        0.6039342859        9.3439201350
  H         5.3346657597        0.5067403952       10.2571384638
  C         6.7801383634        2.1002543494        8.5249096541
  H         4.8586153411        1.7867797917        7.5790851766
  H         5.6601297917        0.2605299678        7.9394209482
  C         7.9349616660        1.4445007521        9.3546723710
  H         7.1498657182        2.3343276398        7.5120231389
  H         6.5610006302        3.0840519781        9.0430165270
  C         9.2430995473        2.3306524844        9.4033768850
  H         8.1938188386        0.5023487576        8.9473490603
  H         7.6000933728        1.2517463964       10.4067769733
  C         8.9189135801        3.6561260011       10.0936092171
  C         9.4717520150        2.9969798520        8.1143605937
  C        10.4875728063        1.6208331562        9.8973831167
  C         8.9273444065        4.7045064359        9.2204497832
  C         8.4622546615        4.0056183128       11.3579156166
  C         9.3319516921        4.3167655099        8.0062600566
  C         9.9019397873        2.3320754655        6.8971160468
  H        10.2108399077        0.9797677873       10.6991779353
  H        10.8167496004        0.8940616854        9.1260562567
  C        11.6321725036        2.6292007041       10.1436493208
  S         8.3528201139        6.1517881575        9.9265099094
  C         8.1333531552        5.3367165106       11.4309644141
  H         8.3137722108        3.3020004761       12.1605481475
  C         9.4651147118        4.9743235663        6.8238832825
  H        10.1233461398        1.2822532318        6.8149884666
  C        10.0895466487        2.9882664688        5.7057431049
  H        11.3772257089        3.6095732765       10.7333125041
  H        12.0130582996        3.0136525338        9.2780928474
  C        12.7327818669        2.0773982367       11.0502615745
  C         7.7055147379        6.0965733494       12.6470749388
  C         9.9067925967        4.3414754406        5.6507797718
  H         9.1965280707        6.0479201232        6.8429055606
  C        10.4670552487        2.6829716996        4.4689477616
  H        13.4813241248        2.9088314766       11.1230626044
  H        13.1334964405        1.1821419808       10.5378753442
  C        12.3221973492        1.6091234014       12.4476732818
  C         7.6114050220        7.4938012835       12.8872849015
  C         7.3780707427        5.2166044774       13.7862805586
  C        10.1434454506        5.0729943026        4.3857008995
  C        10.5239533556        3.8041443707        3.6285833097
  S        11.0758875469        1.2943095918        3.7147416471
  H        11.8459984253        0.6982339303       12.1990962973
  H        13.1742293556        1.3363709683       12.9775055582
  C        11.4062169225        2.4792487058       13.3091381051
  N         7.9342092503        8.5268097359       11.9758063426
  C         7.2826326378        8.0102822310       14.1730799412
  C         6.9097993264        5.7949649526       14.9984295951
  H         7.1254745345        4.1608136195       13.6148008813
  C        11.4043523490        5.9739182444        4.6253788238
  C         8.8596324518        5.7343464171        3.9106060955
  C        10.9832284426        3.5449611829        2.3605133233
  C        11.2797695131        2.2125560417        2.2401437013
  H        10.4373327617        2.5258755388       12.8318913632
  H        11.7687460894        3.5085238648       13.2956101796
  C        11.2864845649        2.0745607353       14.7234943416
  S         7.8545211616        9.9685771463       12.7325870957
  N         7.2966414229        9.3742168116       14.1557003558
  C         7.0412314376        7.2706637268       15.3086321656
  H         6.7817690758        5.1069543271       15.8040295257
  H        11.1361465770        6.7347140894        5.4208327489
  H        11.6522774721        6.6621646020        3.7283142306
  C        12.7129550778        5.2972745460        5.1286177050
  H         8.5680653592        6.4111504611        4.6775711833
  H         9.1149470076        6.2959766079        3.1277791470
  C         7.8086763628        4.7772971080        3.3509770636
  H        11.0221299202        4.3515330322        1.6250367733
  C        11.7829635017        1.5436189568        0.9965671116
  H        10.4568124014        2.6544265952       15.2139536669
  H        11.1223323060        0.9580198725       14.7554028465
  C        12.6001725315        2.3436323487       15.4651369115
  C         6.8915164448        7.9856892785       16.4913187022
  H        12.4759879650        5.0217197979        6.1927507862
  H        12.9475576097        4.4039766873        4.5665017254
  C        13.9865826481        6.1012711585        5.1412105416
  H         7.5210846065        4.0308898603        4.1507203475
  H         8.0935610992        4.3087502768        2.4303486961
  C         6.4788813602        5.4551615019        2.9895118628
  C        11.8778048676        0.1350365433        0.8016422511
  C        12.0275873578        2.3475303930       -0.2833938226
  H        12.7945732913        3.3995119647       15.4083513120
  H        13.4014876537        1.7883759997       14.9188594068
  C        12.3998323029        1.8513452646       16.8919727245
  H         7.0913678514        9.0617730041       16.5549708825
  C         6.5388416054        7.4742072278       17.7638195043
  H        13.7572015817        7.0905704244        5.4533019106
  H        14.3022627673        6.1221350853        4.1311686435
  C        15.0670798762        5.5609416485        6.0957745287
  H         5.7897369296        4.6310050933        2.8830645450
  H         6.0950184252        6.1161284379        3.7790441302
  C         6.4038510111        5.9951852334        1.5608052059
  N        11.4548070402       -0.7942653117        1.7664404306
  C        12.2539199921       -0.4573305185       -0.3706118795
  C        12.4064077565        1.6807729582       -1.5117834485
  H        11.8616243018        3.4049259588       -0.2615049462
  H        12.5705233181        0.7746996208       16.9674545262
  H        11.3686380405        2.1811935800       17.3292901818
  H        13.2674513393        2.4134786590       17.4059161975
  S         6.2324838124        5.8700494601       18.3119770998
  C         6.4751283231        8.5297845325       18.8119452588
  H        15.0302817082        6.0298898880        7.1405527785
  H        14.7910529768        4.5581393854        6.2898661801
  C        16.5090324267        5.4503057942        5.4798225544
  H         6.7550739022        5.1762814248        0.9252997372
  H         7.1443624084        6.7029454192        1.3039344594
  C         4.9409847962        6.4845421663        1.2656628932
  S        11.5939840809       -2.2655669678        1.1865082773
  N        12.1418990340       -1.8323496909       -0.3354192637
  C        12.5613499263        0.2322647649       -1.5284966881
  H        12.6705249400        2.2678103047       -2.4233379091
  C         5.9735059536        6.6587575555       19.8740465189
  N         5.9947193103        8.0201039617       19.9612381278
  O         6.6864619004        9.6885757181       18.6230827051
  H        16.3659994923        4.8822090830        4.6039150415
  H        16.9297633383        6.4070389704        5.2680886910
  C        17.4871732770        4.7278717749        6.4315455647
  H         4.7473460093        6.4512886245        0.2044131693
  H         4.2022823544        5.7844936508        1.8335731211
  C         4.7771007305        7.8851012611        1.7787093630
  C        12.8014929175       -0.4992993823       -2.7580999797
  S         5.6162079455        5.6817694360       21.3288920169
  C         6.0091033920        8.7522959393       21.1736292157
  H        16.9729931557        4.2107374277        7.2625871954
  H        17.9180535534        3.9011816039        5.8099572234
  C        18.5512958491        5.6738255280        7.0636379018
  H         5.1261481742        8.0814222680        2.8043551246
  H         3.7173027521        7.9160062954        2.1024781393
  C         5.1628792252        9.0290770108        0.8710063048
  H        12.3800389500       -1.4631689640       -2.6830078905
  C        13.4492372598       -0.1815954022       -3.9846471533
  H         5.3212505141        8.2148665572       21.8647996046
  H         5.4936324691        9.6930071155       21.0090573784
  C         7.4361072542        8.8905851335       21.7574576979
  H        18.5898181442        5.3215444373        8.1020837086
  H        18.1456954322        6.6729903247        7.0994352473
  C        19.9160126666        5.5363446862        6.3543124477
  H         6.2503136171        8.9659744543        0.8225250966
  H         4.7338193314        8.9568145916       -0.0977353621
  C         4.8812334051       10.4294213496        1.4185905704
  S        14.2547921061        1.3232259444       -4.4836717775
  C        13.5606266467       -1.1592349589       -5.0321085104
  H         7.8407392864        7.9779932621       22.0622825300
  H         7.4575194148        9.4989835918       22.6395683045
  H         8.2070582421        9.2605472270       21.1586591694
  H        19.9910290881        4.7967460678        5.6362353446
  H        20.2375429851        6.4346861310        5.8682482879
  H        20.6684516251        5.3695382204        7.0658282302
  H         5.7555606454       10.7117130144        1.9217253609
  H         4.5453805855       11.0625071729        0.5833822299
  H         4.0856695448       10.4439305829        2.1222924944
  C        14.6846908703        0.6267311913       -5.9889579019
  N        14.2863605789       -0.6360154494       -6.0865903014
  O        12.9589260259       -2.2206822951       -5.0395862246
  S        15.0819347081        1.6428655576       -7.3694178802
  C        14.4250363153       -1.4534574590       -7.3026395991
  H        14.5822000029       -2.4825371353       -7.1783273450
  H        15.3043519036       -1.1614221157       -7.8694198895
  C        13.2014596597       -1.3547338260       -8.2611950179
  H        12.2502205501       -1.2279537990       -7.6733641614
  H        13.0320229019       -2.0721988523       -9.0405993560
  H        13.2994619126       -0.3882895173       -8.8707623324
