352
 i =   133300, time =    66650.000, E =        99.0328721640
  H         9.6615886018        4.9317150823       31.8929118217
  C        10.2426375231        5.8510497551       32.0517848001
  H         9.5045187615        6.5684865307       32.2764102539
  C        11.3897457964        6.1248382011       31.0078600538
  C        10.9235600521        5.5784603694       33.4247557202
  C        10.8358408502        6.0711725875       29.6054433704
  H        11.8360568357        7.0453567887       31.2055915025
  H        12.1433628907        5.3484908509       31.2875631019
  H        10.4154476822        6.2317341382       34.1101577396
  H        10.7545969255        4.4930257068       33.6102122345
  H        12.0256073082        5.7628837947       33.3700935035
  C        11.5507593117        5.2387427702       28.5394326641
  H        10.5899569813        7.0658788463       29.2354750379
  H         9.8145100480        5.7217036686       29.7797350067
  C        11.3769582985        5.6057646725       27.0061954980
  H        12.5793352797        5.0998381580       28.7940443506
  H        11.1030162681        4.2141730708       28.5307449552
  C        10.0872471681        5.0433726279       26.4355254177
  H        12.2013720979        5.2744464289       26.4012793290
  H        11.2592555997        6.7046446810       26.9276999313
  C         8.8833007856        5.9894417706       26.2175576584
  H        10.4161846679        4.7131529510       25.4901692556
  H         9.8353082922        4.1685681718       27.0284706284
  C         7.6205196840        5.3540312674       25.5837913697
  H         8.5698913351        6.3383497684       27.2006762312
  H         9.1824637726        6.7776934934       25.6299349208
  C         7.2285336728        4.0340039301       26.3056213569
  C         7.9458180677        4.5755834948       24.3385980454
  C         6.4276729916        6.3785104194       25.3947806771
  C         7.2992692839        2.9236520939       25.5170449335
  C         6.5946526070        3.6737208319       27.5483995940
  C         7.7636481418        3.2695080414       24.2516818350
  C         8.3123427912        5.1885757020       23.1113986843
  H         6.7121823080        7.1772990231       24.8371807418
  H         6.1335097612        6.7840637505       26.4105401415
  C         5.2702556944        5.7987832815       24.6410987437
  S         7.0278037018        1.4885770583       26.2286840452
  C         6.5309461202        2.3019739214       27.6464346517
  H         6.4033653296        4.3804778456       28.3486176818
  C         8.0157703840        2.5880231047       23.0638049343
  H         8.5215571755        6.2563577735       23.1394462545
  C         8.5511109363        4.5476445559       21.9505713642
  H         5.5760461550        5.5276375384       23.6297919521
  H         4.9456219147        4.8030805864       25.0643454934
  C         4.0284107049        6.6632859467       24.5997400813
  C         6.0959892168        1.5905546555       28.9423244214
  C         8.3842602111        3.2369783779       21.8949962268
  H         7.7243271546        1.4918780392       22.9668858295
  C         8.9940125230        4.9129199709       20.7359390850
  H         3.3917837523        6.1164416146       23.9248801245
  H         4.4501308505        7.6175781772       24.1536835739
  C         3.2180833326        6.8445340441       25.9094751212
  C         6.0305588654        0.1576158366       29.1267626577
  C         5.4614663808        2.4029314596       30.0344235623
  C         8.8281483192        2.4590855324       20.6706117803
  C         9.2254923683        3.7620386422       19.9974236721
  S         9.3442468387        6.4440538665       19.9726518563
  H         2.4083521390        7.4957164935       25.6539612213
  H         3.8498120374        7.4016207504       26.5653799023
  C         2.7627844407        5.5865795751       26.6606522043
  N         6.4008687575       -0.7999348096       28.1952487701
  C         5.6314593834       -0.3698946844       30.3528994820
  C         5.2503567090        1.7923502847       31.2973293371
  H         5.4009891975        3.4775218455       29.9563334036
  C         7.6505566212        1.6685599587       19.9172471972
  C        10.1129453269        1.5672730281       20.8758879333
  C         9.6852070039        4.1126494694       18.7291556599
  C         9.6716795470        5.5193676087       18.5053736766
  H         2.5006159536        4.7289920584       25.9506377320
  H         3.6667013657        5.2452260699       27.1412561102
  C         1.7387762219        5.8928576714       27.7209130340
  S         6.0785501977       -2.2657870277       28.8441669576
  N         5.5675617527       -1.8050971937       30.3247223243
  C         5.3706962684        0.3358627607       31.5372994630
  H         4.9772253263        2.4990763378       32.0736790421
  H         7.2317489373        0.9841336586       20.6188729454
  H         8.0011022052        1.2201972561       18.9814577708
  C         6.4253430234        2.4247817985       19.4815650305
  H        10.2560850025        0.8523977331       20.0702577864
  H         9.8374143678        0.8582236698       21.6579404660
  C        11.2968935053        2.3712084500       21.3114432607
  H         9.9140190925        3.3568068117       17.9442219581
  C         9.9024756132        6.2544126559       17.2140099605
  H         1.1462120160        4.9349226051       27.9536097227
  H         1.0337771669        6.7095947735       27.4184151592
  C         2.3850182778        6.3374157422       28.9839780794
  C         5.1014012909       -0.3226998033       32.7589282305
  H         6.6619775952        3.2641334733       18.8600300134
  H         5.9036234117        2.9528293957       20.2973465125
  C         5.4169271459        1.5531765127       18.7268115408
  H        11.2051836376        2.9038727662       22.2952400094
  H        11.6089123919        3.2595096384       20.8210843413
  C        12.6146874386        1.4612658427       21.4825859623
  C         9.9102323240        7.6386860562       16.9771441622
  C        10.3791182825        5.4851843977       16.0251357562
  H         3.3632284827        6.8589517027       28.6556261696
  H         1.7253998500        7.0207465613       29.4798908707
  C         2.6082029430        5.1819020524       29.9409403650
  H         5.3012447114       -1.3848031176       32.7890025623
  C         4.8550107973        0.1239212940       34.0117819081
  H         4.7530989210        1.0726839177       19.4531157129
  H         6.0169623327        0.7365298201       18.2801836359
  C         4.7243495612        2.4170376175       17.6714438366
  H        12.2738145530        0.8324078130       22.2923685858
  H        12.7294615464        0.9163646491       20.6089064193
  C        13.8250614021        2.3150160642       21.9146271829
  N         9.5282137830        8.5437174186       17.9447643102
  C        10.1951761099        8.2771001973       15.7514525951
  C        10.5741964660        6.0789720400       14.7643836021
  H        10.4175060802        4.3909930467       15.9977089856
  H         3.0781064412        5.4040784502       30.9130025869
  H         1.6699407145        4.6288418927       30.1139734439
  H         3.1224427485        4.4471652929       29.3426932815
  S         4.6288686296        1.7038018455       34.5712487976
  C         4.6489136319       -0.8908009301       35.0478159218
  H         4.8995785522        3.5013057644       17.8770702196
  H         5.1175640246        2.3761274912       16.6337379703
  C         3.2677927748        2.1582310809       17.4735714940
  H        13.7187386654        2.5088557480       22.9841957146
  H        13.7905014531        3.2736349808       21.4067908262
  C        15.2141837005        1.5970381428       21.8336922685
  S         9.5940721329       10.0833947682       17.3492263300
  N        10.1266455217        9.6491335458       15.8484195528
  C        10.5343992598        7.5674187336       14.6360398346
  H        10.8044530885        5.4718093338       13.9266004975
  C         4.2342269214        1.0367173715       36.1577258879
  N         4.2907098313       -0.3263494208       36.1503192731
  O         4.6740100021       -2.1541896322       34.8488461981
  H         2.8540030164        2.8480931051       16.7102849807
  H         2.6515639908        2.1130292668       18.3487567571
  C         3.1033429287        0.7369295823       16.9543629480
  H        15.2631362158        0.9297687603       22.7566617313
  H        15.2644844296        0.8464754959       21.0282035887
  C        16.4226458925        2.4879290658       21.6905404856
  C        10.8492229991        8.3061241379       13.4345250003
  S         3.8880472428        1.9170677840       37.6706820609
  C         4.2011967381       -1.1270278779       37.3775595860
  H         2.4803601078        0.6610756615       16.0876496797
  H         4.0888966776        0.3302023893       16.7439676175
  C         2.3961870651       -0.1787389304       17.9878809586
  H        16.2386447693        3.5005549225       22.0856241385
  H        16.6520770458        2.5997489565       20.6131330497
  C        17.7540441746        1.9933029686       22.2997715849
  H        10.4623290465        9.3214354498       13.5116464695
  C        11.4765652106        7.9442579580       12.2872200032
  H         3.3710261208       -0.7586846858       37.9238016094
  H         3.8485676156       -2.1072156485       37.1955631184
  C         5.5140277515       -1.2458259117       38.1389373152
  H         1.4220903954        0.2233176701       18.0914686530
  H         2.8761876277       -0.1929844902       18.9297832129
  C         2.3453106721       -1.6226379924       17.4851026396
  H        18.0100833121        1.1293574231       21.7150421550
  H        18.5975725757        2.6257874786       22.0457736277
  C        17.7494682554        1.7073152546       23.8353561472
  S        11.9755007947        6.3376062002       11.7787270925
  C        11.7309275184        9.0617612730       11.3103787253
  H         6.3004045390       -0.6084049646       37.6856819146
  H         5.3088983145       -0.9333377308       39.2095699699
  H         5.7798610812       -2.3011944319       38.1716815167
  H         2.3755592587       -2.2688957510       18.2903642882
  H         3.2083484522       -1.9104711282       16.8862075151
  H         1.4973286907       -1.7408984765       16.9323365755
  H        17.0079290272        0.9140012005       24.0188496319
  H        17.4191634526        2.4810969583       24.5229339344
  H        18.6959870959        1.3613115712       24.0924384710
  C        12.4529154559        7.1963265300       10.2600607400
  N        12.2698478982        8.5518040819       10.2034916436
  O        11.4436675236       10.2612198943       11.4489518967
  S        13.0123814482        6.3723495509        8.8239520770
  C        12.4093551294        9.4184675093        8.9794217872
  H        12.7333295985       10.4172408228        9.1496319443
  H        13.1017328921        9.0116761562        8.1747627594
  C        11.0963693083        9.5794093216        8.3919261364
  H        10.3922921936       10.0697093291        9.0761165206
  H        11.1395585616        9.9920575738        7.3504477834
  H        10.7509108843        8.5354088336        8.2263115928
  H         2.7403985835        1.5698887096       12.6295493145
  C         3.6164602840        2.2369425877       12.4073053805
  H         4.4283877148        1.5797665669       12.2244726433
  C         3.3681906120        3.1737238528       11.2134850839
  C         3.9003513903        3.0017307909       13.6963141326
  C         4.4665302248        3.1198143928       10.2092689167
  H         3.0609452647        4.1981626275       11.4088344691
  H         2.5025350690        2.8034363206       10.6923462876
  H         4.5992417590        3.8029409504       13.4895595530
  H         4.4015190242        2.3609609018       14.4747573887
  H         2.9916483215        3.3439508393       14.0679491734
  C         4.6511053897        1.7408317170        9.5287225169
  H         4.2290246444        3.7550157000        9.3981137250
  H         5.4278114012        3.4382657708       10.6200561404
  C         5.2174179438        1.8688576224        8.1538058593
  H         3.6972227220        1.2630123500        9.3482604898
  H         5.2465145760        0.9446347072       10.0213662037
  C         6.6170101033        2.5341904893        8.0610440394
  H         4.4334278459        2.3297574264        7.6235514709
  H         5.1730630418        0.8487065054        7.7740265077
  C         7.7432414247        1.9031038127        8.8675275757
  H         6.9200858693        2.6746759409        7.0568758069
  H         6.4017359688        3.4992145411        8.3408318205
  C         9.0414020316        2.7796491091        8.9781309785
  H         8.0968307663        0.9556695524        8.4669471422
  H         7.4429636910        1.5976616502        9.8725723993
  C         8.8032307341        4.1812055027        9.6265372749
  C         9.4955841854        3.3832993125        7.7351905705
  C        10.2117944262        2.0350103704        9.6438333441
  C         9.1353764676        5.2501986328        8.8008408146
  C         8.1902520746        4.6089533479       10.8116137614
  C         9.6472658610        4.7240121325        7.5915332741
  C         9.8431084422        2.6409760991        6.5865991602
  H         9.7666224503        1.4991277450       10.4566123744
  H        10.7100713253        1.3286095576        9.0413612855
  C        11.3166316875        2.9581785182       10.1763717052
  S         8.7928708137        6.7896912371        9.3894923719
  C         8.1478754218        5.9680853207       10.8580560767
  H         7.8903460609        3.8034055609       11.4801959229
  C        10.0020414810        5.2428698569        6.3719832697
  H         9.8837852659        1.5680961169        6.5665833316
  C        10.2656505877        3.1519811056        5.3811002936
  H        10.8946020911        3.7792870335       10.6794938314
  H        11.9715704395        3.4191719854        9.4182785473
  C        12.2540803572        2.3055727978       11.1690775241
  C         7.6140855150        6.7400079232       12.0041647210
  C        10.3754836462        4.5255578281        5.1959865942
  H        10.0685307836        6.3182702581        6.3953341913
  C        10.7731130488        2.6978970733        4.1904239480
  H        13.1657531773        2.9681377966       11.3115833952
  H        12.5642312663        1.2986989488       10.8233301676
  C        11.4952092887        2.0209928413       12.5746325319
  C         7.6285176246        8.1152918354       12.2497322032
  C         7.0384938340        5.9400678215       13.0872479827
  C        10.8142583374        5.0713937530        3.8857919434
  C        11.0869628365        3.7060034508        3.3010119459
  S        11.1037927364        1.1252369476        3.6433583604
  H        10.9651009987        2.8822994123       12.9479717883
  H        10.7912787069        1.2193181299       12.3424688315
  C        12.3402191176        1.3211436652       13.6496770187
  N         8.1848095557        9.1624868730       11.4637478074
  C         7.3420368086        8.6174716036       13.4975563091
  C         6.6337039160        6.4639515742       14.3278917843
  H         7.0082459523        4.8322150527       13.0710263788
  C        12.1891007981        5.8166756074        3.9191456163
  C         9.7884797612        5.7798545236        3.0398374628
  C        11.6523674012        3.2689627124        2.1240639733
  C        11.6028216319        1.9165369489        2.1264959183
  H        13.2106438340        0.9452825690       13.1156816848
  H        11.7855743577        0.4259859422       14.0452551545
  C        12.7922795656        2.2167159169       14.7318812346
  S         8.1790596431       10.5371711669       12.3357932321
  N         7.4873477771        9.9924446327       13.6151252354
  C         6.8833498995        7.8467556607       14.6081469309
  H         6.1819808292        5.6864240593       15.0148297111
  H        12.1035797934        6.8688770857        4.1932983710
  H        12.5048704118        5.8352997004        2.8824614995
  C        13.2287088464        5.1278468777        4.8271270194
  H         9.5303881813        6.7121377430        3.6056607170
  H        10.0762751972        6.2874976561        2.1428272655
  C         8.5030140399        4.9787020497        2.6177012990
  H        12.0991935924        3.9644885799        1.3873546191
  C        11.7881412097        1.1050625741        0.8674752164
  H        13.7515422651        2.5321084222       14.4094880459
  H        12.1192716294        3.0475801943       14.8658358183
  C        12.8486413702        1.6798181001       16.1716622361
  C         6.6570806130        8.4429010308       15.8879219242
  H        12.7858689757        4.8244121209        5.8032521325
  H        13.5832852496        4.2513505777        4.3421408073
  C        14.3983835319        6.0853596168        5.1263126258
  H         8.2620739241        4.3120827855        3.5149410732
  H         8.7546100536        4.3649170929        1.7280155247
  C         7.4032711934        5.9972561109        2.2705518909
  C        11.7897329815       -0.2829185430        0.7543838324
  C        12.0971810890        1.8653829069       -0.3815732052
  H        13.5492514728        0.9416248233       16.2165120868
  H        11.9248605424        1.1911656677       16.3464179225
  C        13.1436653498        2.8387167852       17.1998266671
  H         6.8925635743        9.4137858197       15.8451536157
  C         6.4326036732        7.9511953070       17.1356503564
  H        14.0449987334        6.8130948258        5.8470124962
  H        14.8525211338        6.5696485714        4.2656564131
  C        15.3801720817        5.1548341651        5.8704705783
  H         7.1476422080        6.5109601987        3.1170692621
  H         7.8178700799        6.8480515462        1.6614259080
  C         6.1698819827        5.3081667458        1.6274979140
  N        11.5142901784       -1.1049560485        1.8109237980
  C        11.9525984851       -0.9473611788       -0.4648384145
  C        12.3876786248        1.1615659855       -1.5241377355
  H        12.1374126699        2.9099947085       -0.4815960875
  H        12.2830046972        3.4685546060       17.3211972224
  H        14.1553295483        3.3589656236       17.0190125032
  H        13.2072051793        2.3867929556       18.1910016314
  S         6.3349146402        6.3388139533       17.5901767933
  C         6.3188704400        8.9362500700       18.2251563544
  H        15.0456766168        4.9363558147        6.8999634160
  H        15.4269648045        4.2189851917        5.4114591048
  C        16.7792421367        5.7284121025        6.0236891013
  H         5.7337897667        4.6949136728        2.4357197133
  H         6.4712107505        4.4981440587        0.9279005287
  C         5.1596304720        6.1968710635        0.9293049938
  S        11.5253225551       -2.6403307917        1.2088717653
  N        11.8064835174       -2.3034510022       -0.3354645974
  C        12.4450289824       -0.3595609050       -1.6070289158
  H        12.6662569134        1.6904017128       -2.3925758354
  C         5.8765666674        6.8952670751       19.1850622327
  N         5.9942711299        8.2332773856       19.3286874373
  O         6.4168443420       10.1286314365       18.1608966724
  H        17.1488695784        5.9520867279        5.0209125098
  H        16.7983828038        6.6510137770        6.5858515880
  C        17.6881558897        4.7648100726        6.7427161056
  H         5.5843780375        6.7914614549        0.1588518080
  H         4.3151457164        5.5403589027        0.5899434913
  C         4.4520351673        7.1799309544        1.7703074545
  C        12.9267874552       -1.1720457208       -2.7208181152
  S         5.6950876981        5.8351853095       20.5120431171
  C         5.8550476269        8.9781775679       20.5605852806
  H        17.0282501523        4.2740387997        7.4439258303
  H        18.0809136030        4.0700497472        6.0272131124
  C        18.8813907303        5.4541741234        7.3330850670
  H         5.0547350003        7.3494149596        2.7206730189
  H         3.4786437728        6.7763497705        2.1291205976
  C         4.1662946576        8.6393426175        1.1837087578
  H        13.0947939349       -2.2798925443       -2.5136606412
  C        13.2776796978       -0.7645846884       -3.9919490109
  H         5.1560334685        8.5238327211       21.1993676533
  H         5.4590458811        9.9632438034       20.3616244258
  C         7.1660117080        9.1653807250       21.2785568665
  H        19.4164203973        4.9202396019        8.0763272046
  H        18.5731504426        6.3606704038        7.7674534083
  C        19.8628272784        5.6405652141        6.1957609788
  H         5.1297028525        8.9934110710        0.8572640930
  H         3.6336094403        8.5633005461        0.3010476316
  C         3.4286107295        9.6309292877        2.0947069117
  S        13.5303531521        0.7686987758       -4.5661781160
  C        13.3449704732       -1.7233831306       -5.0135436314
  H         7.3715677139        8.2117460450       21.7544406440
  H         7.0521576430        9.8858056683       22.0820623171
  H         8.0677155328        9.4571311755       20.6431378984
  H        19.8671587322        4.8105485447        5.5289912995
  H        19.6496239544        6.5896314337        5.7270837776
  H        20.9123313692        5.7410050054        6.5875780185
  H         2.3925357096        9.5805439865        1.7358783302
  H         3.3639495200        9.5167116588        3.1536148379
  H         3.7610209329       10.6491505310        2.0167876640
  C        13.9965313247        0.0897950817       -6.1086321979
  N        13.8650437300       -1.2389853294       -6.1560573889
  O        13.1636462878       -2.9641483144       -4.7735659477
  S        14.6788789401        0.8707405693       -7.5655659971
  C        13.8987497803       -2.0093614517       -7.3982552898
  H        13.7888264164       -3.1593139722       -7.2048954880
  H        14.9343527917       -1.9163694569       -7.7486413952
  C        12.6983452725       -1.7011091492       -8.3892230838
  H        12.7297103466       -2.2056046894       -9.3525240502
  H        12.8209612101       -0.6404373163       -8.6451335565
  H        11.6868815739       -1.8707207481       -7.9515372987
