352
 i =    42200, time =    21100.000, E =       100.2975162182
  H        10.8743900771        4.6207600740       31.9867939098
  C        10.5891294029        5.6533590892       32.1180542621
  H         9.4778150722        5.6936727168       31.8273305709
  C        11.4265705951        6.4076976708       31.1124745410
  C        10.6099873571        5.9944160572       33.5747434134
  C        11.4658641961        5.6980850987       29.7362818367
  H        11.0689349777        7.4248758103       31.1441496053
  H        12.4575451499        6.3489567641       31.3982879274
  H        11.3352109150        6.7422401017       33.7727737321
  H         9.6258162613        6.3239921850       33.8081247512
  H        10.9147490187        5.1141105749       34.1307088806
  C        10.2192536164        5.7775064603       28.9340373238
  H        11.7839771237        4.6474745855       30.0005793155
  H        12.2566473715        6.0247816961       29.0884593815
  C        10.4964891944        5.4988337325       27.3585014039
  H         9.6584794103        5.0070199600       29.3333268376
  H         9.6025806037        6.7232282026       29.0063405265
  C         9.3744290900        4.9003270454       26.5769033604
  H        11.2730440228        4.7028414758       27.2945377984
  H        10.9222128185        6.3567381553       26.8412027365
  C         8.2655128081        5.8658838437       26.3281872488
  H         9.8008913190        4.4856465445       25.7248779930
  H         8.9742542348        4.0582775324       27.0984120576
  C         7.2180876718        5.2058861556       25.5185325151
  H         7.8750910631        6.3466519984       27.2454078808
  H         8.6585226987        6.6999309644       25.7854778001
  C         6.8288917511        3.8287823748       26.0621599817
  C         7.6282414101        4.4986133066       24.2116246316
  C         6.0154320643        6.0667768145       25.2476694551
  C         7.0349501410        2.7537538469       25.1910580215
  C         6.2162948321        3.4308381347       27.2449874432
  C         7.4530420505        3.1560012390       23.9866481321
  C         8.1166142807        5.1118916858       23.0511955752
  H         6.3404362370        6.7263903973       24.4692816708
  H         5.8033292875        6.7392833313       25.9468500587
  C         4.7427695064        5.3644931269       24.7994116970
  S         6.6416547362        1.2413209694       25.9113226608
  C         6.1931649243        2.0851298122       27.4012297830
  H         5.9462196418        4.1984381844       27.9550266061
  C         7.8352632081        2.5296252243       22.8528720173
  H         8.3473064585        6.1717709106       23.0685944822
  C         8.4170901766        4.4347787315       21.9108990282
  H         4.8365099539        5.0240722224       23.7957040142
  H         4.5689074464        4.5104484642       25.3906210735
  C         3.4416299199        6.2323918058       24.8613649691
  C         5.9177094890        1.3700593766       28.7474810427
  C         8.3770173387        3.0749597705       21.7023681990
  H         7.8064170498        1.4525629358       22.7876289423
  C         8.9567064924        4.8185694161       20.6822496992
  H         2.7194534901        5.8417507302       24.1459056193
  H         3.6397361980        7.2831890737       24.5911108441
  C         2.8635384858        6.1623376965       26.2577256117
  C         6.0299769087       -0.0392277314       28.9518394119
  C         5.4634870388        2.1281304404       29.9043787186
  C         8.8551369666        2.3786210029       20.4683364943
  C         9.1550963846        3.7292264081       19.8627184768
  S         9.2519362876        6.2427502746       19.9166810031
  H         2.2493819187        7.0787670283       26.3295345010
  H         3.7062414861        6.3410414914       26.9505467076
  C         2.1702327416        4.8534773076       26.7146317326
  N         6.4289516070       -0.9916772513       27.9926604181
  C         5.7285938753       -0.6559121916       30.1417029378
  C         5.2902083273        1.5777263247       31.1222254496
  H         5.4013207111        3.2113704295       29.7644824113
  C         7.6816624622        1.6832053197       19.7414286216
  C         9.9941793272        1.4466359768       20.8311273330
  C         9.6197144716        4.0688439273       18.6084896876
  C         9.5527715873        5.4103507733       18.4560009476
  H         1.4843791191        4.5798368848       25.9000015039
  H         3.0456150175        4.1596623495       26.7741377416
  C         1.3975222012        5.0895372512       28.0037812605
  S         6.1891687067       -2.4935696759       28.5766581673
  N         5.7448215808       -2.0537333466       30.0919098978
  C         5.4748132887        0.1277300651       31.3182182957
  H         4.8220209399        2.2203147047       31.8786198168
  H         7.4324002877        0.8047007225       20.4242735793
  H         8.0675083482        1.1120398112       18.8360265105
  C         6.3327496931        2.4244922626       19.4175703447
  H        10.2061677782        0.5581310048       20.2370534072
  H         9.6771904058        1.0257798086       21.7908065553
  C        11.2635429438        2.2226998727       21.2303609492
  H         9.6773936358        3.2640399076       17.9983249545
  C         9.8521351694        6.1367690913       17.1611851457
  H         0.7084375764        4.2399620043       28.1546883439
  H         0.8526137892        6.1089703769       28.0160643014
  C         2.3654229327        5.3284051202       29.1898526283
  C         5.1410693753       -0.5093807985       32.5845309811
  H         6.4894297016        3.3577086287       18.8625778375
  H         5.8930889240        2.7944734326       20.3576616740
  C         5.3339225988        1.6445562174       18.5083593562
  H        11.0548187518        2.9540655163       21.9995486811
  H        11.4972502217        2.7707819246       20.3378240934
  C        12.5114420537        1.4504341748       21.5758098849
  C         9.8866514780        7.5351896377       16.9898641005
  C        10.0255729210        5.3048642068       15.9605260597
  H         2.9208293080        4.4114939451       29.1999297025
  H         3.1554425980        6.0481376961       28.9710773374
  C         1.5687270709        5.5785199290       30.4649779323
  H         5.0901610340       -1.5650595686       32.5523616207
  C         4.8624705541       -0.1271808372       33.8404677774
  H         5.3813831678        0.5806926540       18.7763481468
  H         5.4832501415        1.8363947505       17.3808840902
  C         3.8856941132        2.2117185795       18.7803775799
  H        12.2904744094        0.7677502815       22.4360900730
  H        12.8677966046        0.8903267144       20.7355216624
  C        13.7207522630        2.3022177308       21.8580610795
  N         9.6136642902        8.5225981767       17.9638649375
  C        10.1935693530        8.1574291605       15.8082350422
  C        10.3503485461        5.9508779870       14.7667890411
  H         9.9382436097        4.2417652942       15.9902547479
  H         2.3147404667        5.5483211414       31.3165851531
  H         1.2131788874        6.5485912072       30.4702770807
  H         0.7723644287        4.8666120924       30.6862413472
  S         4.5266238733        1.4946493568       34.3213785014
  C         4.7024099206       -1.1709061645       34.9214705891
  H         3.8299504550        2.8914085131       19.5899489092
  H         3.7414839372        2.7450227791       17.8029750221
  C         2.9840433554        1.0250194382       18.9104081801
  H        13.5450176934        3.0975752734       22.4796232130
  H        14.0327626442        2.7197464490       20.9204970649
  C        14.8202588376        1.4762673586       22.4593348710
  S         9.7547374193       10.0137318340       17.3006732793
  N        10.2408828305        9.5216519809       15.8312790040
  C        10.5507913161        7.4654734645       14.6254374521
  H        10.5999148624        5.4119601179       13.8738809488
  C         4.4322324334        0.8595816940       35.9677732364
  N         4.4366123045       -0.5107145614       36.0830162241
  O         4.7453284994       -2.4022000558       34.8437096072
  H         1.9511842949        1.2557651588       19.3107060535
  H         3.5363599872        0.4276716761       19.5940839685
  C         2.8895419925        0.1849858615       17.6194487126
  H        14.4003637770        0.7329785576       23.1382475296
  H        15.3907636305        0.9802980875       21.6530050101
  C        15.7775200717        2.3573470210       23.2430351842
  C        10.8059930208        8.2450008469       13.4158236610
  S         4.0949930150        1.6773399201       37.5127668998
  C         4.4798583710       -1.1839591010       37.3433410244
  H         2.3899239598        0.8367189419       16.8343527570
  H         3.8056381155       -0.2216302855       17.1824915256
  C         2.0823846446       -1.1280701145       17.8411530505
  H        15.2721370754        2.9157301825       24.0953483168
  H        16.1155642743        3.1719462959       22.5774996920
  C        16.9522976909        1.5202780082       23.7602227606
  H        10.6843442831        9.3444453888       13.5560174033
  C        11.2758277492        7.8569462703       12.1697077600
  H         3.7935217455       -0.7659914049       38.0606689222
  H         4.1038318083       -2.2111798273       37.2705384687
  C         5.9625596216       -1.1597604850       37.9304899168
  H         1.0259246149       -0.9068377410       17.9719341709
  H         2.2960363934       -1.6635301842       18.7967607565
  C         2.2622083286       -2.1744425249       16.7194174197
  H        17.2533359082        1.9742712914       24.7383836323
  H        16.5605804985        0.5431178822       24.0039990768
  C        18.1623381831        1.4826994796       22.7568998441
  S        11.8051566962        6.3083116167       11.6232566978
  C        11.3623006122        8.8848101551       11.1345927623
  H         6.4374631613       -0.2352434894       37.5726128934
  H         6.0808105275       -1.2256434330       38.9929920845
  H         6.5367029689       -2.0076809305       37.5286675831
  H         1.7954468707       -3.1370017267       17.0938753417
  H         3.2910071735       -2.3762322380       16.5658342776
  H         1.8268340437       -1.8888168249       15.7371331443
  H        18.9528269244        0.7933984262       23.1208037179
  H        18.6184932361        2.4632167223       22.5800856257
  H        17.9107749109        1.0392510760       21.8667411890
  C        12.2026350104        7.0932076827       10.1075985026
  N        11.9381823752        8.3840734210       10.0627418020
  O        10.8829080110       10.0205955841       11.1987430584
  S        12.9417749788        6.3097827404        8.7163437087
  C        12.0073407366        9.2654410611        8.8679519946
  H        12.2848403869       10.2706135545        9.2383789760
  H        12.8219994410        8.9499956905        8.2124748870
  C        10.6739116529        9.3558824292        8.0113747509
  H         9.9223071662        9.9255700186        8.4818295793
  H        10.8065284811        9.8280753524        7.0027610644
  H        10.2262055089        8.3631336076        7.6941128733
  H         4.5277640806        1.7862183878       12.0694535274
  C         3.7722616394        2.5806796192       12.1890056359
  H         4.4060154545        3.4336014344       12.2293896431
  C         2.8902503208        2.5113297811       11.0011315577
  C         3.3913616163        2.2570054144       13.6077223430
  C         3.6960413849        2.8094408237        9.7408420049
  H         2.1185702757        3.2961293682       10.9637161086
  H         2.2407519673        1.6002886757       10.9105789411
  H         2.5146099187        2.7728989949       13.8722499040
  H         4.1562803377        2.5594135610       14.4001858355
  H         3.1567746111        1.2077868879       13.7485893574
  C         4.4753745117        1.5736598889        9.2826869064
  H         2.9530910683        3.0904122316        9.0463346705
  H         4.2608218712        3.7892362721        9.8467565747
  C         5.3198978081        1.8556803423        7.9757379026
  H         3.6902078611        0.8645088830        8.9604188761
  H         5.0524688332        1.1332340667       10.0473963657
  C         6.6257432843        2.5854899351        8.2586080864
  H         4.8126328564        2.3025546367        7.1556765348
  H         5.6008892410        0.9245694631        7.5416638848
  C         7.8141210950        1.6903817928        8.5568231330
  H         6.8490231682        3.1026712500        7.3998348413
  H         6.4269885379        3.2309953110        9.0273514551
  C         9.0298332999        2.6912077182        8.8532438873
  H         8.0704006571        1.1507840667        7.7035100400
  H         7.6340295305        0.9379461535        9.3782243972
  C         8.7684043902        4.0062271172        9.5769414498
  C         9.4518244421        3.4334913773        7.6671866784
  C        10.2723123476        1.9300748264        9.3844090026
  C         9.0421430836        5.1385266114        8.8216364790
  C         8.1890011046        4.4305051893       10.8397742089
  C         9.4152007433        4.7434232596        7.5716962189
  C         9.8714227852        2.7845643781        6.4769741726
  H        10.0333054945        1.4380942162       10.3371833209
  H        10.4521567967        1.1037018014        8.6571942380
  C        11.5127812848        2.7191571897        9.5420584628
  S         8.7198740346        6.6688153486        9.6302179544
  C         8.2518709550        5.7630436122       11.0538060918
  H         7.8181479347        3.6634495373       11.5846802367
  C         9.7869699567        5.3528737409        6.4158361924
  H         9.9722175657        1.7060082954        6.5709090926
  C        10.2755438240        3.4734163669        5.3875382171
  H        11.2947878509        3.7408045719        9.7277034239
  H        12.1253005955        2.8342566062        8.6078486461
  C        12.2945162001        2.2940127603       10.8488812534
  C         7.8061259876        6.4623180241       12.3719281195
  C        10.2203244052        4.8014640647        5.2808113278
  H         9.6334179403        6.4304025796        6.4551658698
  C        10.6369097774        3.1106107377        4.1096084560
  H        13.3157963164        2.5871103485       10.9363237588
  H        12.3506579953        1.1711975993       10.9289989209
  C        11.8187742835        2.7962212757       12.2330131520
  C         7.7312690428        7.8523739271       12.6657709657
  C         7.4716537241        5.5680274881       13.4880153839
  C        10.7365652830        5.4259263696        4.0703448263
  C        10.9074183558        4.1694928698        3.2890365274
  S        10.8413235390        1.5793551548        3.2689742645
  H        12.1135371008        3.8336339239       12.4410195517
  H        10.6897105329        2.8679988096       12.2652338585
  C        12.2971720789        1.8988102300       13.3691425730
  N         8.0647519638        8.8390211707       11.8190349931
  C         7.4166040236        8.3109829149       13.9461171331
  C         7.1044249534        6.0425258932       14.7234573842
  H         7.4826840451        4.4808656136       13.4277478641
  C        12.1345956162        6.0850621796        4.2527745599
  C         9.7362079934        6.4330275537        3.3825146452
  C        11.2719906891        3.8451171345        1.9700342971
  C        11.2253592403        2.4418509675        1.8446950194
  H        13.3194736599        1.5892445985       13.2361126520
  H        11.7891267525        0.9811609121       13.3043225671
  C        11.9326501201        2.4392502455       14.7512916139
  S         7.8387548101       10.3144194839       12.5787160772
  N         7.3978493829        9.6748894349       13.9992418474
  C         7.0234381632        7.5217977861       14.9865697872
  H         6.8753077118        5.3289478944       15.4755723990
  H        12.0856370524        6.9566570489        4.8147405365
  H        12.5441567917        6.3944787429        3.3367564098
  C        13.1874740486        5.1636221210        4.8906056064
  H         9.4892298323        7.2689204950        4.1144288382
  H        10.2055593948        6.8876730169        2.5078748883
  C         8.4734310682        5.6825103190        2.9108672948
  H        11.2698392876        4.6055157690        1.2303251503
  C        11.4437253664        1.6798475649        0.5976012482
  H        12.0544078075        3.5343993974       14.6721173560
  H        10.9153388827        2.2222063847       15.0824926600
  C        12.8772897726        1.8919017096       15.8734684336
  C         6.7847863417        8.1195042058       16.2489901634
  H        12.8763184301        4.5110628672        5.6962826907
  H        13.5204479902        4.5065311792        4.0628762980
  C        14.4955660697        5.9194021048        5.2949039566
  H         8.0508474035        5.1638641666        3.7506991894
  H         8.7333376261        4.8725970416        2.2630488956
  C         7.4672345264        6.6197200882        2.1536119327
  C        11.5273920594        0.2744103221        0.4925723078
  C        11.7827694292        2.3796271670       -0.6408812566
  H        13.8549222104        1.6402537498       15.4961852131
  H        12.4506167899        0.8993270536       16.1366707501
  C        13.1125834949        2.6605055060       17.1251854124
  H         7.0154914699        9.2499229957       16.3014810254
  C         6.4937955687        7.7014737911       17.5119782719
  H        14.1951168590        6.6009795732        6.0646341547
  H        14.7955991342        6.4381762799        4.3156980447
  C        15.5235083645        4.9098716022        5.8212184650
  H         7.0495184425        7.3196918587        2.8744043794
  H         8.0379897505        7.3063763767        1.4780632107
  C         6.2508677573        5.8961514864        1.3459703598
  N        11.2748572782       -0.7425364382        1.4599403538
  C        11.9365494289       -0.3642398717       -0.7366758144
  C        12.1782079590        1.7298051783       -1.8127329101
  H        11.7707622594        3.4412583075       -0.6588159103
  H        12.2279939033        2.6853835288       17.6726239113
  H        13.6142965590        3.6418288483       17.0736281279
  H        13.7228801151        2.0364566640       17.6762894150
  S         6.1678924642        6.0381632336       17.9323793336
  C         6.2509172677        8.7190982082       18.5361920875
  H        15.1536857221        3.9563205933        6.1473026309
  H        16.1746972246        4.6779302878        5.0028711425
  C        16.3093325782        5.5126820165        7.0088169196
  H         5.6294630226        5.2204959794        1.9328190992
  H         6.7326430015        5.3581665982        0.5126893916
  C         5.2312716438        6.8509905978        0.6963688947
  S        11.5976636831       -2.2341148463        0.8616851774
  N        11.8997488521       -1.7632690814       -0.6786744382
  C        12.3076004419        0.2787577939       -1.9252901571
  H        12.3243869176        2.2478998496       -2.7127671632
  C         5.9214129469        6.7577476062       19.5603222660
  N         5.8651986963        8.1155925269       19.6483335332
  O         6.2323435900        9.9507723234       18.4235373324
  H        16.5437805502        6.5929208836        6.9010287388
  H        15.6086935970        5.3617713977        7.8620566860
  C        17.6426988625        4.6836262777        7.1394052862
  H         5.7706572508        7.6011251626        0.0878779907
  H         4.7226893522        6.2496611243       -0.0814977078
  C         4.2117199094        7.4610993736        1.6855313214
  C        12.7301120132       -0.4674619953       -3.0380046155
  S         5.4190016176        5.8069849904       20.9841484551
  C         5.6502149719        8.7555989942       20.9853049546
  H        17.5919734758        4.2046635661        8.0926009759
  H        17.6711460373        3.8318291106        6.3912719646
  C        18.9324235085        5.4952703670        7.0272514890
  H         4.4288637536        7.1316586105        2.7147650857
  H         3.1583312629        7.1945393005        1.4849515905
  C         4.3279710911        9.0411504795        1.7768137298
  H        12.3540982327       -1.5278748717       -3.0094171707
  C        13.3888109170       -0.2028026646       -4.2311542450
  H         4.9605258448        8.2406345118       21.6560587268
  H         5.2544542164        9.7938462245       21.0014400495
  C         6.9865426074        8.8491250712       21.8133107311
  H        19.7881388608        4.8693148617        7.2616538559
  H        18.9531338040        6.1921378842        7.8816430222
  C        19.1647931202        6.1147111853        5.6642297873
  H         3.8226621841        9.3631867321        2.6223585253
  H         5.3974031303        9.2112233798        1.9689156863
  C         3.9449895036        9.7669935712        0.4288938127
  S        14.1327856598        1.3374037029       -4.6700911728
  C        13.4140237136       -1.2522016704       -5.2740454804
  H         7.7528540641        8.1615942267       21.5731092096
  H         6.7725225575        8.6266765447       22.8733847739
  H         7.4099286618        9.8576371759       21.7697899738
  H        19.2402592709        5.4468124928        4.8272006886
  H        18.4378007329        6.9751971020        5.4430613185
  H        20.1374352786        6.5656102446        5.7536385500
  H         3.7092659408       10.8358685283        0.5654608054
  H         4.7282177585        9.6106993321       -0.3344739061
  H         3.0130462650        9.3957533480        0.0105868493
  C        14.3577226587        0.5430790953       -6.1793811000
  N        14.0111429032       -0.7399024091       -6.3336810140
  O        12.9196886098       -2.3769370052       -5.1056629773
  S        15.0079862572        1.4021961848       -7.5316060428
  C        14.0789982976       -1.3980913546       -7.6051654025
  H        14.1678552517       -2.4610040213       -7.4795555997
  H        15.0059073462       -1.1627471450       -8.1513363595
  C        12.8357815134       -0.8550789135       -8.3545162045
  H        12.1371760603       -0.4316058327       -7.6504463120
  H        12.3455095399       -1.6245809194       -8.8820102440
  H        13.0946000517       -0.1052636246       -9.1372783513
