352
 i =    38200, time =    19100.000, E =        98.3172089988
  H         9.7379228211        5.3125883593       31.5860117090
  C        10.2624354247        6.1491277868       32.1622465709
  H         9.5171379459        6.8217217122       32.5454641054
  C        11.2367405140        6.7341855435       31.0945194541
  C        10.8803601212        5.6396748400       33.5113656614
  C        11.4546248898        5.8012938891       29.9513979432
  H        10.7727424235        7.6551850898       30.8967771326
  H        12.1447972908        6.8191036796       31.6375903806
  H        11.3235912769        4.6682165694       33.3342442867
  H        11.5952646539        6.3601685577       33.9608580187
  H        10.1794988373        5.5435137024       34.3676800234
  C        10.2187003577        5.5044931749       29.0041345603
  H        11.7822310678        4.8286677535       30.3400845407
  H        12.2653842398        6.3085857934       29.3137092071
  C        10.7067388257        5.5612062507       27.6004536958
  H         9.6415586953        4.6019587958       29.2103587972
  H         9.6167737116        6.3886634643       29.0915289485
  C         9.7663009046        5.0081091764       26.5011921365
  H        11.5635882749        4.8352335364       27.6457567795
  H        11.1061346631        6.5640057020       27.2905994163
  C         8.2772009232        5.5767401031       26.4498012514
  H        10.2759566315        5.0709190693       25.5926938885
  H         9.6786505660        3.8851336531       26.7675064079
  C         7.2040576432        4.6954092324       25.6294121858
  H         7.9509502642        5.7989815406       27.4911934643
  H         8.4117092500        6.5894892560       25.9788205906
  C         6.8729500902        3.3502165824       26.3291648753
  C         7.6674243607        4.0299780986       24.3521443463
  C         5.9452025425        5.5809346406       25.5231578274
  C         7.0392835339        2.3026783184       25.4812529210
  C         6.2804670649        2.9196436403       27.5065869434
  C         7.5977841997        2.6892848160       24.2732174968
  C         8.1861925300        4.7162301720       23.2575525358
  H         6.2009541674        6.5206523958       24.9326800742
  H         5.5850747980        5.9494028507       26.4974448959
  C         4.7278585600        4.9889926657       24.8683914777
  S         6.5241020884        0.8229259626       26.1347820446
  C         6.2055066977        1.6018604930       27.6266574357
  H         5.9154509040        3.6010149222       28.3107814420
  C         7.9818065765        2.1158616940       23.1311777060
  H         8.1774731096        5.7884635066       23.3535857536
  C         8.5082483232        4.1585595775       22.0721980564
  H         5.0064412740        4.6391673343       23.8726715173
  H         4.3788632600        4.1230850807       25.3482366813
  C         3.6242555288        6.1182079460       24.7102821926
  C         5.6699718243        0.9028604339       28.8063287599
  C         8.4395237751        2.7879087450       21.9715713533
  H         7.8140882398        1.0589070932       22.9535546120
  C         8.8824877345        4.5899922289       20.8816050395
  H         2.8684296621        5.8351919937       23.9074596544
  H         4.0512444927        7.1218345402       24.5149124024
  C         2.8302919876        6.2542001944       26.0607450996
  C         5.7230689793       -0.4697067004       29.0707014049
  C         5.1516456804        1.7424377616       29.9362581584
  C         8.8669221287        2.0932400946       20.7233257589
  C         9.1429424260        3.4883301502       20.0488291438
  S         9.1447248710        6.1006233092       20.1210618461
  H         2.0984991730        7.1247098698       26.0060803401
  H         3.5253925476        6.6254514982       26.8231998342
  C         2.0336662205        5.0030864084       26.4907806340
  N         6.1285881671       -1.4128371408       28.1225419507
  C         5.2765031225       -1.0176369051       30.2831762720
  C         4.8444660535        1.2439142711       31.1271740015
  H         4.9789835007        2.7632220546       29.7440896101
  C         7.6949713827        1.2555068801       20.1174341370
  C        10.1437973053        1.2233210899       21.0821440719
  C         9.5653511935        3.9538362070       18.7750724102
  C         9.5904742211        5.2948637125       18.7293920762
  H         1.4021151132        4.7470761607       25.6845031639
  H         2.7398109809        4.2410324387       26.7767965501
  C         1.1126681216        5.2331065258       27.7419256804
  S         5.9106638786       -2.8759074506       28.7905441038
  N         5.4190855863       -2.4129478940       30.3280374522
  C         4.9109286285       -0.2066640432       31.3916926064
  H         4.5236031560        1.9750714134       31.8626033917
  H         7.5185745207        0.3879122823       20.7991587682
  H         8.0419840438        0.7907229553       19.2091025995
  C         6.4119427630        2.1339233572       19.7143930054
  H        10.3791237122        0.5524175161       20.2450400104
  H         9.9526587509        0.6035026444       21.8950466153
  C        11.3958843021        1.9778459950       21.2531400345
  H         9.7231973874        3.2612253719       18.0181996530
  C         9.9111488860        6.0740114934       17.4653642731
  H         0.4437644742        4.3208849269       27.6058032667
  H         0.4850530064        6.0884380956       27.5211672213
  C         1.8516104268        5.3938789136       29.0807995531
  C         4.6381793996       -0.7869896688       32.7005971518
  H         6.6578764047        2.9826557789       19.1018288750
  H         6.0018124723        2.4417071282       20.6750661629
  C         5.3707700185        1.4314740010       18.8576287454
  H        11.4456242149        2.6915056880       22.0914678648
  H        11.4884797831        2.6197871794       20.4163568899
  C        12.6728892123        1.1730362220       21.2882927672
  C         9.8978307803        7.4858753211       17.2840453362
  C        10.1607886181        5.3075875102       16.1629135669
  H         2.4344642767        4.5557323967       29.1062433123
  H         2.6419172939        6.1816558913       28.9771114494
  C         0.8747562123        5.5702591020       30.2530851090
  H         4.6351198815       -1.8484481991       32.6854152557
  C         4.2329524783       -0.3298210301       33.9486918688
  H         5.0832378861        0.4501525357       19.3254311479
  H         5.9858581330        1.0869185627       18.0178115997
  C         4.2201309746        2.4583654229       18.5886789398
  H        12.5414374992        0.4716476771       22.0529729508
  H        12.8917612899        0.7357487243       20.3239873898
  C        13.9558538250        1.9572837530       21.6871702903
  N         9.6064759609        8.3675627681       18.2838979858
  C        10.2169754817        8.1240425837       16.1242721302
  C        10.5807696645        5.9546842003       15.0031391626
  H        10.2267849729        4.2703535461       16.1940580523
  H         1.0404514110        6.6046924035       30.6665533236
  H        -0.1186418409        5.4570178061       29.9168053932
  H         1.0360445388        4.8225621232       30.9881125012
  S         3.8677304974        1.2721579088       34.4384509742
  C         4.3605169719       -1.2717001133       35.0548018064
  H         4.2790766614        3.2587658099       19.2631850019
  H         4.3584238555        2.7913273266       17.5460211654
  C         2.8976531547        1.7272521414       18.7243937522
  H        13.7831809558        3.0307886656       21.8626835465
  H        14.6988031932        1.7978708907       20.8941915324
  C        14.4928091654        1.5399019020       23.1260280836
  S         9.6650493900        9.8679105375       17.6634167269
  N        10.1319854727        9.4846623252       16.1765824767
  C        10.6204029594        7.4238652435       14.9149381390
  H        10.8778054850        5.3789347992       14.1019439978
  C         3.7460392323        0.6523298757       36.0585715871
  N         4.0602330422       -0.6647239857       36.1777148756
  O         4.4760985855       -2.5229261243       34.8402066261
  H         2.0937216615        2.4312986020       18.8201924550
  H         2.8581123464        1.1021383915       19.6042842604
  C         2.5816786706        0.8058099714       17.5961860291
  H        13.6412033119        1.6119429143       23.8055447891
  H        14.8393622294        0.5146396960       23.1497432417
  C        15.6891125665        2.3894935538       23.5637775433
  C        10.8495838333        8.2211510245       13.7773392102
  S         3.3241299066        1.5619063588       37.4589128587
  C         3.9713793467       -1.4154775874       37.3990136082
  H         1.8067515354        1.2619485167       17.0396798614
  H         3.4452213248        0.5544270911       16.9474196114
  C         1.9408279508       -0.5358598111       18.0421919446
  H        15.5233506472        2.6048732068       24.6293167730
  H        15.7675485445        3.2852072271       22.9646477270
  C        17.0845372096        1.6902464686       23.5060657018
  H        10.7088561387        9.2603331604       13.9013017524
  C        11.4595221368        7.9814840626       12.5358959099
  H         3.3106930714       -0.8836055691       38.0923041928
  H         3.3967123179       -2.2184186133       37.0767066371
  C         5.2887716253       -1.7787928990       38.1615608063
  H         0.8871357587       -0.4034147035       18.3585901510
  H         2.5219143263       -0.9816257399       18.8643109664
  C         1.9570476972       -1.6437989430       16.9990092814
  H        17.8482358255        2.3073651315       23.9507200348
  H        17.0136105639        0.7923745658       24.1688753483
  C        17.4710404993        1.4729816327       22.0325573723
  S        12.0932703318        6.5209319986       11.8851879692
  C        11.5174565888        9.1833600702       11.6153727421
  H         6.1183140279       -1.3293953816       37.6028017483
  H         5.3414785750       -1.4462034120       39.2148202677
  H         5.5622781216       -2.8829196694       38.0869945568
  H         2.6167520770       -2.3843067481       17.2281394954
  H         2.2074962989       -1.2835688823       16.0068673161
  H         0.9393743932       -2.0267811062       16.7567898279
  H        18.5198601668        1.3061725480       21.9262426491
  H        17.4019218573        2.4544743040       21.4275847019
  H        16.9192823838        0.7424329346       21.5701194357
  C        12.2800656799        7.4337756101       10.3987976872
  N        11.9914683899        8.7469849084       10.4170525757
  O        11.1821024818       10.3290252004       11.8594251664
  S        13.1039373734        6.7173581072        8.9540562825
  C        12.1066848443        9.6246354862        9.2811937827
  H        11.9003572628       10.7112153713        9.5306311090
  H        13.0907654134        9.5291089458        8.9988194083
  C        11.1853992588        9.2133462594        8.1746916338
  H        10.8701181572        9.9985014300        7.5006941779
  H        11.5144960829        8.3852948994        7.5489225199
  H        10.3151424424        8.8030501629        8.6334918045
  H         2.5415730438        1.2043584484       13.7603450906
  C         3.4368247817        1.6316133843       13.3574524353
  H         4.1283815438        0.8560900281       13.1560241772
  C         3.1013009865        2.3965424071       12.0029375039
  C         3.9328658999        2.5290133644       14.4914705547
  C         4.4001042313        2.5450904345       11.1653472184
  H         2.6972435306        3.3560644026       12.2212753941
  H         2.3551918052        1.8130353066       11.5052877578
  H         4.1706277430        1.9275284999       15.3745267505
  H         3.1696134189        3.1976783818       14.8080718372
  H         4.8609172855        3.0840397467       14.1189229178
  C         4.7833203344        1.2908086398       10.4658280150
  H         4.2713267010        3.3802828054       10.4657163360
  H         5.2927324198        2.9083352218       11.7603426456
  C         5.2232032497        1.4761426581        9.0144703678
  H         3.9216103247        0.6040883213       10.4811944860
  H         5.5774652011        0.6865675774       10.9687301494
  C         6.4086111709        2.4273526520        8.7444533726
  H         4.3414977431        1.8894434187        8.5212643851
  H         5.2879500027        0.4979503002        8.4218333863
  C         7.7226980157        1.8435635881        9.2229121354
  H         6.4877013631        2.5220642417        7.5980283929
  H         6.3131209060        3.4117912450        9.2286139379
  C         8.8954620570        2.8346580106        9.4294396490
  H         8.0606585582        1.0589059372        8.4883860840
  H         7.5019007058        1.2815980966       10.1459260012
  C         8.6064260946        4.2199376584       10.0769268021
  C         9.2969868774        3.5529923046        8.1546010232
  C        10.2644568910        2.2419239467       10.0580617525
  C         8.8814627365        5.2820537744        9.2821606454
  C         8.0102280910        4.5801691131       11.2912699718
  C         9.3432655981        4.8981535228        8.0817914600
  C         9.7440881364        2.9771488973        6.9814312138
  H         9.9498235792        1.5645286102       10.8619959003
  H        10.9269678612        1.8893851106        9.2995922192
  C        11.2336434185        3.1637611380       10.7740182847
  S         8.5047718288        6.7653128737       10.0417428969
  C         7.9880221598        5.9135001958       11.3942593667
  H         7.7282247393        3.7952964801       11.9774867401
  C         9.7246593428        5.5784472236        7.0092521919
  H         9.6547771504        1.9374828647        6.8888368429
  C        10.1508779933        3.6470153565        5.8482020521
  H        10.7176369652        3.7550021907       11.5056132588
  H        11.6624934488        3.9695269120       10.1495435872
  C        12.4137629382        2.4034422042       11.3967138064
  C         7.5975213865        6.6101580087       12.6689853271
  C        10.1808401881        5.0252542526        5.7965412971
  H         9.7988153348        6.6767112289        6.9281230262
  C        10.5501327740        3.2125575744        4.6501371625
  H        13.3138734140        3.0562349044       11.5840342728
  H        12.8724199857        1.6535430977       10.8092521398
  C        12.0391427697        1.9689221882       12.8105085509
  C         7.6424845607        8.0398271259       13.0013515588
  C         7.2454301682        5.6958281360       13.8143744287
  C        10.5087414161        5.6381875492        4.4825770871
  C        10.7591589293        4.3166094869        3.8512734310
  S        10.8377286762        1.6882347312        3.8868377031
  H        11.3747978920        2.6395281790       13.2487925717
  H        11.5147979013        0.9897046680       12.7947473725
  C        13.1799868963        1.9202181337       13.9256921638
  N         8.1406474170        8.9958072478       12.0963330005
  C         7.2066818359        8.5555843219       14.2039065339
  C         6.9761563703        6.1911292402       15.0740697097
  H         7.1995436143        4.6160787066       13.7040062611
  C        11.8453354437        6.3899962707        4.4714733011
  C         9.4018698669        6.3016675126        3.8004478729
  C        11.2998503307        3.9473495809        2.6341984457
  C        11.3414930073        2.6138205247        2.4934720581
  H        13.4471738137        2.9528483465       13.9171277040
  H        14.1520278871        1.4768064139       13.5003630754
  C        12.7814725006        1.2553616523       15.2624973642
  S         7.9451170254       10.4744800424       12.7418362316
  N         7.1570791774        9.9901441424       14.1374649306
  C         6.9963932148        7.7143737285       15.3106688856
  H         6.6985201587        5.5176826969       15.8528519712
  H        11.6344765744        7.1316315186        5.2757665212
  H        12.0745024019        7.0962039260        3.6759766009
  C        13.0351475750        5.5115629993        4.8704228961
  H         9.2874670580        7.2594155428        4.2313843756
  H         9.7708470473        6.4393583260        2.7785442534
  C         7.9908072417        5.5754403485        3.6713627166
  H        11.6648231771        4.7424167137        2.0139873135
  C        11.7961721246        1.8457039734        1.2634045542
  H        11.7890666145        0.7842438963       15.2693733081
  H        13.6239604862        0.5471868613       15.5642750244
  C        12.8978220919        2.3824341982       16.2815537692
  C         6.6427630915        8.4416131857       16.5080692155
  H        12.7412216345        4.8037272633        5.6409968399
  H        13.3039113926        4.9838732946        3.9863985635
  C        14.1372082575        6.3751377371        5.4140031842
  H         7.6383402816        5.0275242990        4.5543361613
  H         8.1631561896        4.8173086087        2.8977755541
  C         6.8593737591        6.5497799458        3.2350068264
  C        11.7987039733        0.3923336391        1.0881405586
  C        12.1325933573        2.5616334935        0.0353175503
  H        12.0752284024        2.9990156192       16.2214063266
  H        13.8746773204        2.7965599637       16.1085881904
  C        12.8613650256        1.8459195673       17.7512630375
  H         6.7323495557        9.5172662108       16.6050346309
  C         6.3280782067        7.8938739502       17.7247853900
  H        13.8248752104        6.7955338705        6.3918316972
  H        14.2527059298        7.2766786497        4.7746894548
  C        15.3607477251        5.5730928025        5.5028474306
  H         6.7940619500        7.4168788753        3.9703571827
  H         7.1540735792        6.8453263336        2.2360749712
  C         5.5003396646        5.8504901441        3.3567610840
  N        11.5269975061       -0.5939397906        2.0280177726
  C        12.1694408664       -0.2866918788       -0.1095896915
  C        12.4288592039        1.9393127131       -1.2168494242
  H        12.1668327308        3.6204182352        0.0087103310
  H        13.1401354743        2.7724245689       18.2810197694
  H        13.6834180214        1.1040314980       17.9768787592
  H        11.8955485707        1.5146119249       18.1387950461
  S         6.1430742737        6.2063388560       18.1173993089
  C         6.2060348814        8.7844527207       18.8477122205
  H        15.2134042242        4.7705085368        6.2365713046
  H        15.5349465726        5.1138125635        4.5098550635
  C        16.4976968900        6.4250328643        5.9894211956
  H         5.2314464474        5.7347927402        4.4406972592
  H         5.6749602175        4.7636754615        2.9462949298
  C         4.4632622383        6.6936367746        2.5749623451
  S        11.6755387165       -2.0646271623        1.4457986355
  N        12.0035345196       -1.6744665257       -0.0967683631
  C        12.5432936336        0.4417429975       -1.3106709869
  H        12.5391137312        2.6102395455       -2.0886165478
  C         5.9434560061        6.7403050258       19.7916443698
  N         5.9778368838        8.0927628400       19.9436711209
  O         6.2873684970        9.9598146609       18.8049566980
  H        16.8207893414        7.1591483395        5.3264103626
  H        16.1360088188        6.8561077822        6.9464087415
  C        17.6237938378        5.4918423918        6.5571215465
  H         4.7193850342        6.8653883579        1.5342244309
  H         3.5546209376        6.1636813137        2.7187171113
  C         4.1714982833        8.0415310557        3.2366204366
  C        12.7916688267       -0.3279680074       -2.4869277455
  S         5.4406830364        5.7322593870       21.1193269837
  C         5.7635845593        8.7334997247       21.2568014771
  H        17.6174034181        5.5300803439        7.6483276489
  H        17.4040759117        4.4666374148        6.3770486961
  C        18.9539723761        5.8952805101        5.9281056286
  H         4.2430087203        7.9478056393        4.2871336770
  H         3.1329008307        8.1865676149        2.9809261306
  C         4.9850395551        9.1812295610        2.6583074348
  H        12.7838381431       -1.4203989552       -2.3055613095
  C        13.2016163853        0.0026599739       -3.7549338602
  H         5.0073033795        8.2036509883       21.9172816351
  H         5.2669878224        9.6683338618       21.0256882964
  C         7.0491833043        8.8644791792       22.1021821845
  H        18.9609140340        6.9985637699        5.6522257023
  H        19.1048545906        5.2857313459        4.9673075854
  C        20.1173900319        5.5763881963        6.8722595228
  H         4.9684402451        9.9894994717        3.3969071215
  H         6.0125231545        8.8784881143        2.6266624347
  C         4.5710223895        9.7088282754        1.3217540009
  S        13.5116301198        1.5467366462       -4.3731879306
  C        13.2083344328       -1.0915101422       -4.8054349180
  H         7.5590243187        7.8976795070       22.3002269665
  H         7.0028577295        9.4036143126       23.0179641498
  H         7.7832281666        9.3922318803       21.5230615904
  H        20.9820070434        5.2496478999        6.1992333662
  H        20.4561605667        6.4359366903        7.3469324143
  H        19.9274625301        4.9001053354        7.7391704030
  H         4.7244627671        8.8781003485        0.5829366319
  H         3.5197999455        9.9903853837        1.2402509307
  H         5.2069530465       10.6104515763        1.0011022192
  C        13.7598119020        0.7505227247       -5.9241444675
  N        13.6918816337       -0.6133414020       -5.9554286028
  O        12.9635944137       -2.2142536117       -4.4822086960
  S        14.4332906755        1.5503604514       -7.2571848859
  C        14.0924224636       -1.5127361630       -7.0474406899
  H        14.2043660319       -2.5349837006       -6.6519367820
  H        15.0917250814       -1.2169199002       -7.4469597110
  C        13.0330951670       -1.4895826177       -8.1660465930
  H        12.1806699214       -0.7950764783       -7.9212000998
  H        12.6080844034       -2.4295800155       -8.3898602349
  H        13.5227243569       -1.1160756101       -9.0747187868
