352
 i =   128800, time =    64400.000, E =        99.5410912084
  H        10.1789748644        6.7317103882       30.1520294738
  C        11.0675620014        6.6831290865       30.8772448886
  H        11.1488413378        7.7616658982       31.2420367963
  C        12.3704747645        6.1684394175       30.2106293041
  C        10.6614970356        5.9243785015       32.1312490987
  C        12.1043368531        5.0903288437       29.1428024908
  H        12.9482734004        7.0024404188       29.8629314867
  H        12.9357114008        5.6393221157       30.9476018828
  H        10.6894084639        4.8840197676       31.8570750845
  H        11.4129380244        6.1710327795       32.8813238052
  H         9.6641339504        6.2431595436       32.5320525967
  C        12.0586267632        5.5805323789       27.7376217298
  H        11.1341049312        4.6414183533       29.3658426508
  H        12.9111661772        4.3240253207       29.1175570273
  C        10.7726531778        6.3609849114       27.3494629351
  H        12.9307126536        6.2503492142       27.6239642446
  H        12.1940970092        4.7220204116       27.0687243715
  C         9.6578807351        5.3937080649       26.9042292600
  H        11.1191827256        6.9822929363       26.5295056895
  H        10.3323025098        7.0653664367       28.0688962140
  C         8.4869251615        6.1089935279       26.2362981329
  H        10.1199617101        4.7016782543       26.2187690998
  H         9.2478450036        4.7340774853       27.6106483692
  C         7.4206434868        5.2513448014       25.5473406980
  H         8.1108281748        6.7285145438       27.0598658904
  H         8.8290657184        6.8601662151       25.5701037676
  C         7.0845739791        4.0217630547       26.2927360966
  C         7.8681597861        4.5343677357       24.3287285396
  C         6.1409078503        6.1781844226       25.3924271426
  C         7.2477033351        2.8716898710       25.5211358892
  C         6.5880487777        3.7441825471       27.5944145252
  C         7.8558032215        3.1755355367       24.3153949140
  C         8.4265579691        5.0948893940       23.1415283419
  H         6.2477087007        6.9868679748       24.6658092641
  H         5.8683572009        6.5586483499       26.3687861590
  C         4.9165314616        5.3926435867       24.9184398945
  S         6.8467671032        1.4179926334       26.2981068379
  C         6.4666090153        2.3759273963       27.7215579609
  H         6.3820425651        4.4746971248       28.3513739535
  C         8.4458702749        2.4963296258       23.2636803249
  H         8.6146853557        6.1391741809       23.0161220055
  C         8.8552214289        4.4039970037       22.0190838687
  H         5.0296046377        5.0194261190       23.8490920023
  H         4.6739338343        4.5054852604       25.5448937343
  C         3.6980033593        6.2815425900       24.9429389146
  C         6.0067436759        1.6312127343       28.9425099096
  C         8.7357155317        3.0676917797       22.0287965544
  H         8.3673919902        1.4181315087       23.3369295701
  C         9.1963202375        4.7951908626       20.7868417879
  H         3.0763547516        5.9687781117       24.1506669626
  H         3.7933172589        7.3064330090       24.6454448363
  C         2.8653128084        6.3063953572       26.1802284412
  C         5.9937875779        0.2350643193       29.1674307185
  C         5.6234619824        2.4647181800       30.1176381324
  C         9.1274381573        2.3015403372       20.7478367183
  C         9.4248172319        3.6804317279       19.9936570636
  S         9.3651247023        6.3003553706       20.0328402295
  H         2.0140520994        6.8915328903       25.8263382947
  H         3.3886724991        6.9302903022       26.8992987572
  C         2.3736382608        5.0528150498       26.7893492994
  N         6.3835212405       -0.7450228336       28.1778544835
  C         5.7498713689       -0.3317431923       30.3663418016
  C         5.3942521344        1.8455388566       31.3530866791
  H         5.4766152722        3.5414187050       30.0656713516
  C         7.9050682141        1.4962531679       20.1984044694
  C        10.4573052082        1.4528666040       20.8778540422
  C         9.7311382111        4.0992750119       18.7039401385
  C         9.7359550696        5.4875437887       18.5948770462
  H         1.8979305882        4.3926584021       26.0454098285
  H         3.3356792109        4.5286074509       27.1218682889
  C         1.3846492947        5.2341832318       27.8862536365
  S         6.3932120429       -2.1939246339       28.8731610274
  N         5.9426832305       -1.7219156705       30.3729738067
  C         5.3389336978        0.3930225433       31.5008315799
  H         5.1885299626        2.5118433960       32.2515039158
  H         7.4620466835        0.8119980424       20.9129782991
  H         8.3052376254        0.9078618929       19.3399594452
  C         6.7781057561        2.4132772166       19.7552814778
  H        10.7569523393        0.9479296225       19.9616927768
  H        10.3895237365        0.7556627261       21.7019497288
  C        11.7400166324        2.2581011047       21.1985414341
  H         9.8955583576        3.4084737172       17.8771472943
  C         9.8767736154        6.1887225125       17.3293025267
  H         0.9721219551        4.2138056774       28.1824615283
  H         0.4394246874        5.6992066666       27.4618780920
  C         2.0258585029        5.9094576278       29.1192324385
  C         5.1239501859       -0.4007394683       32.7180856705
  H         7.0993664142        3.1385542305       19.0826825656
  H         6.4963508439        3.0191722309       20.6022236306
  C         5.5851699923        1.6105705331       19.2617386326
  H        11.7689472793        2.6935782480       22.2063402601
  H        11.8515492102        3.1000745492       20.5820302143
  C        13.0491284376        1.4576562147       21.1654763554
  C         9.9124671708        7.6559569691       17.1671238024
  C        10.0216841079        5.3864017453       16.0977908444
  H         2.1533143771        6.9112183465       28.8600097349
  H         1.3631161747        6.1245504016       29.9968605125
  C         3.3012217607        5.2525932296       29.7435031435
  H         5.2414895788       -1.4524913556       32.6137186661
  C         4.7490408947       -0.0187520868       33.9686265945
  H         4.9691778091        1.3602222963       20.1546864933
  H         5.8855892007        0.6329554376       18.9487883849
  C         4.8062798231        2.2664384472       18.1286800653
  H        12.9828923966        0.7282461306       22.0255600426
  H        13.0423201976        0.9892144780       20.1488473938
  C        14.3280648809        2.3730526544       21.2645354927
  N         9.7523748069        8.5846491977       18.1626101721
  C        10.3092775190        8.2413783513       15.9973776941
  C        10.3676398078        6.0324820075       14.8711278962
  H         9.7323815651        4.3110037332       16.1024504266
  H         3.1324157176        4.1835503957       29.6549274726
  H         4.1693484600        5.4742724961       29.1242152243
  H         3.5552257554        5.4024399655       30.7641128012
  S         4.3504411184        1.5381095085       34.5325359091
  C         4.7506218463       -1.0750273977       35.0441517141
  H         4.6752253527        3.3090329858       18.3503069095
  H         5.4166559056        2.3023755445       17.2345764029
  C         3.4098254385        1.6695172531       17.8206808660
  H        13.9928735448        3.3151913267       21.6747064491
  H        14.6260902571        2.5719324574       20.2080399921
  C        15.4459425927        1.6800623084       22.0513097531
  S         9.8855482406       10.1027181530       17.5579454253
  N        10.4910949137        9.6311059365       16.1120706375
  C        10.5834401507        7.4838341826       14.7703128601
  H        10.2939884012        5.4858784948       13.9688781686
  C         4.1316018034        0.8138520920       36.1299668396
  N         4.2906787643       -0.5701475864       36.1816351060
  O         4.9388049627       -2.2975761078       34.8410027232
  H         3.0433312412        2.1871697741       16.9560793354
  H         2.7895899179        2.0895002340       18.6805832762
  C         3.2159486245        0.2447749506       17.5045332277
  H        15.1680558345        1.3662812054       23.0859083000
  H        15.6782944132        0.7440521906       21.5170810222
  C        16.7651844281        2.5171173576       22.1940521197
  C        10.9158863452        8.2081913723       13.5343498682
  S         3.8619104718        1.7776963812       37.5948229401
  C         4.2486499762       -1.3139264135       37.4196886752
  H         3.1805811474        0.2124744342       16.4094946517
  H         4.0629517434       -0.4429423784       17.6776191192
  C         2.0521597979       -0.4083252694       18.2199839260
  H        16.6495779786        3.5736909262       22.5611189679
  H        16.9357880960        2.7225573994       21.1159608134
  C        17.9150364110        1.8780852950       22.9532301868
  H        10.8900713747        9.3129891198       13.6459681811
  C        11.3822495292        7.9359724370       12.3051836231
  H         3.4817281348       -0.8202179598       38.0138379621
  H         3.7948947415       -2.2821282593       37.2674458132
  C         5.6283095675       -1.3580492822       38.1581089719
  H         1.0883392274       -0.0532877996       17.9011446539
  H         2.0856428920       -0.0209818448       19.2758932784
  C         2.1675954707       -1.9416082690       18.2074467920
  H        17.9841930458        0.8492688290       22.6603246098
  H        18.8283884576        2.4253949504       22.9378107357
  C        17.6235483934        1.8269285128       24.4378120151
  S        11.8457254034        6.3827234548       11.7715965073
  C        11.5316920481        9.0254157408       11.3072588334
  H         6.4554807374       -1.1236892654       37.4431252548
  H         5.6108337330       -0.6991765928       39.0048481878
  H         5.7780781323       -2.3834663056       38.5028688549
  H         2.1061709589       -2.2084746691       17.1731490111
  H         1.3816180992       -2.2554516480       18.8327843384
  H         3.1140722414       -2.2739619583       18.5335848708
  H        18.0069790298        2.6852259277       24.9649086051
  H        18.0936214532        0.9705036410       24.8760207868
  H        16.5403577253        1.6557095750       24.6442742995
  C        12.2491793678        7.1621953052       10.2290820468
  N        12.1492181917        8.5049685404       10.2120856991
  O        11.1439958789       10.2025697273       11.4823252386
  S        13.0817486692        6.3001789317        8.9243471932
  C        12.2792316819        9.3393585468        9.0492715547
  H        12.1051301799       10.4354102218        9.4193108333
  H        13.2137035023        9.2155851233        8.6150415495
  C        11.1950700918        9.0751041930        7.9802572700
  H        11.2631670362        8.1519446888        7.3844143187
  H        10.2426777168        9.2115464813        8.5224845402
  H        11.0692248087        9.8603046208        7.2664486801
  H         2.2536550689        1.4870844747       12.2212951454
  C         3.1573215184        2.0480483917       12.4371536309
  H         3.9084285061        1.2587369027       12.3337608882
  C         3.3171453531        3.2122199459       11.4774349994
  C         3.4615881243        2.5569054743       13.9264249352
  C         4.5681091675        3.0423789923       10.5042876187
  H         3.4748045589        4.1687797117       11.9969236378
  H         2.3681178032        3.4008963704       10.9649149182
  H         3.7628914851        1.7995594316       14.5642527695
  H         2.5789577321        3.0153368841       14.3138124609
  H         4.2572095839        3.3592801721       14.0406600913
  C         4.5591793015        1.7763478494        9.6778324957
  H         4.6783894594        3.8703036368        9.8045684259
  H         5.5299526881        3.1156182321       11.1192601674
  C         5.3270945516        1.7729424064        8.3340611689
  H         3.5675533268        1.4219344285        9.4686342263
  H         5.0376143420        1.0602106669       10.3188341485
  C         6.5974819222        2.5735121548        8.2373671886
  H         4.6783997660        1.9729745205        7.4766248122
  H         5.6114492071        0.7629458925        8.1108847442
  C         7.6629780908        1.7974949425        9.0507909856
  H         6.8435659300        2.3894423325        7.2342006563
  H         6.4977866711        3.6892282316        8.4484908845
  C         8.9927925422        2.5999363692        9.1566338877
  H         7.7549188426        0.8422518266        8.4837475856
  H         7.3844476969        1.4662269146       10.0218026881
  C         8.6563256776        3.9392287280        9.7520921225
  C         9.4369072737        3.2732226257        7.8440197935
  C        10.1301216673        1.8656917586        9.8995983990
  C         8.9020384309        5.0387621472        8.9556105635
  C         8.1865848155        4.3163162698       11.0527943883
  C         9.4511901477        4.6236354277        7.7926476090
  C         9.8684138858        2.6664761792        6.6519979294
  H         9.5709463180        1.3840463856       10.7004059354
  H        10.5744480158        1.0059775648        9.3464263957
  C        11.3195923672        2.8155343478       10.3768989803
  S         8.7864804307        6.5029549304        9.8040114121
  C         8.1030410354        5.6998425088       11.2099390081
  H         8.0190588133        3.4733300613       11.7208528837
  C         9.9093793250        5.2199838590        6.6910550081
  H         9.9775424296        1.6052846240        6.7453100046
  C        10.2213777460        3.3057084097        5.4868382017
  H        11.0785540442        3.8364907858       10.6760161886
  H        12.0089962698        2.9693477703        9.5027163864
  C        12.1632824842        2.0493916469       11.4392579647
  C         7.6541699664        6.3961914419       12.4867833094
  C        10.2949088958        4.6690229098        5.4342092387
  H         9.9756360774        6.2931716066        6.7340752502
  C        10.6975771086        2.8983806485        4.2124578338
  H        13.1996575494        2.3342800127       11.1877633497
  H        12.0800594533        0.9966221521       11.2732632159
  C        11.8035454136        2.4792868614       12.7822881107
  C         7.6704973949        7.8285354212       12.6945567696
  C         7.3585360254        5.5660483841       13.6761612145
  C        10.7124666210        5.4155044598        4.1247193571
  C        10.9346913652        4.0269065690        3.4249721651
  S        10.9312636242        1.3930260081        3.4278524452
  H        12.2352112210        3.4266416982       13.0798350011
  H        10.6716278973        2.5856075312       12.8218797294
  C        12.3564151331        1.4546572103       13.8239267516
  N         8.0710588718        8.7523657849       11.7490308497
  C         7.4013031060        8.3954538595       13.9797656954
  C         7.1602901187        6.1619898460       14.9063668168
  H         7.2497498241        4.4189777272       13.6174709752
  C        12.0169254889        6.1219763496        4.4656291781
  C         9.5586075362        6.2968932520        3.5991671188
  C        11.3331310571        3.6261972841        2.1123623035
  C        11.4723199689        2.2231236394        2.0642670285
  H        13.4322788557        1.6331269329       13.9942571991
  H        12.2266701622        0.4164320091       13.4605142590
  C        11.7294227394        1.6376687350       15.1544648756
  S         8.1017411269       10.2343175229       12.5047577722
  N         7.6219869337        9.7632539635       14.0117726287
  C         7.0734913551        7.6292288488       15.1113578178
  H         6.9570884960        5.4778774003       15.7223224378
  H        11.8093739154        6.9443863648        5.1605302390
  H        12.2933303522        6.5436838995        3.5194362134
  C        13.1357696455        5.2102409455        5.0280223598
  H         9.1269711046        6.8406093153        4.5219794880
  H         9.8773167612        7.0935466454        2.9010489289
  C         8.3031789816        5.6936319560        3.1385639500
  H        11.6112175574        4.3283882595        1.3958257774
  C        11.7585831345        1.4766014868        0.8163578604
  H        11.3761549342        2.6412441657       15.1515520350
  H        10.8429725720        0.9978395265       15.3112142913
  C        12.8071010911        1.4031488769       16.2010068609
  C         6.7669806285        8.3298827957       16.3348337879
  H        12.8569728582        5.0121402838        6.0055640280
  H        13.2911912983        4.2493916287        4.5221917739
  C        14.4870523894        5.9155701602        5.1417767313
  H         7.7855854452        5.1324774616        3.9277967608
  H         8.5056550580        4.9678961548        2.4082554522
  C         7.3132592067        6.7695344735        2.6778222345
  C        11.7195023181        0.0646691759        0.6515122675
  C        11.9252428814        2.2569786127       -0.5070323555
  H        13.3403284933        0.4811878620       15.9970412562
  H        12.1406400485        1.0668379453       17.0197067890
  C        13.6631153109        2.5980033116       16.5948341098
  H         6.8733218627        9.4153066600       16.2299214188
  C         6.5533907558        7.8371296353       17.5985927298
  H        14.2902522018        6.7731568030        5.8362236150
  H        14.8188931953        6.2734949406        4.1848865714
  C        15.6314633117        5.1039864614        5.6710012615
  H         7.0034670257        7.3524953622        3.5384013146
  H         7.7551213400        7.5253704361        2.0290014994
  C         6.1717122690        6.0594379118        1.9914168988
  N        11.6196856978       -0.9183516779        1.6441749852
  C        12.0711748974       -0.5194800272       -0.5574871542
  C        12.1751105963        1.6120874755       -1.7161430255
  H        11.9125862013        3.3304183804       -0.5482811515
  H        12.9701263054        3.4464030559       16.4734444033
  H        14.4937592579        2.6827907092       15.8931157801
  H        14.0277580257        2.5243094756       17.5658004429
  S         6.3729899041        6.1898486788       18.1010031698
  C         6.3103282759        8.8184765672       18.6751738414
  H        15.2820918047        4.7573140173        6.6576799103
  H        15.8177568672        4.2725820904        4.9947185778
  C        16.9350619614        5.7628022583        6.0901229960
  H         5.6892925014        5.5354455681        2.8140472168
  H         6.6455813645        5.3891808981        1.2267157670
  C         5.2255350765        7.0098829384        1.2513086144
  S        11.7754266121       -2.4363115259        1.0022939300
  N        12.1472757615       -1.9223728876       -0.4644470649
  C        12.2916476127        0.1173106646       -1.7595076581
  H        12.3807854095        2.2663627371       -2.5920335928
  C         6.0614648552        6.8465222183       19.7334484041
  N         6.1275944868        8.1796002052       19.8506779239
  O         6.3013875552        9.9880846073       18.4351831130
  H        17.3986017970        5.8636959040        5.1262587645
  H        16.8376725189        6.7484795106        6.5291941734
  C        17.8131253209        4.9228076214        7.0393579380
  H         5.5586478310        7.4557885188        0.3505072849
  H         4.2515556345        6.4873791030        1.0213718387
  C         4.6621644934        8.1550272071        2.1136176983
  C        12.7167235724       -0.6443202451       -2.9271609499
  S         5.6102994572        5.9100687114       21.1797607028
  C         6.0574281937        8.9076996061       21.1077526667
  H        17.1793910226        4.7591600539        7.9829104747
  H        17.9020039911        3.9511979621        6.6357767047
  C        19.1819226043        5.5426497430        7.4006100345
  H         5.3962416083        8.5734036253        2.7706451101
  H         3.9075102005        7.7323732919        2.7587206075
  C         4.2300051084        9.3396342722        1.2766081859
  H        12.4201274844       -1.6887308307       -2.8349251360
  C        13.3624046476       -0.2633688189       -4.0889487649
  H         5.2654613325        8.4291899977       21.6471184136
  H         5.7579458398        9.9612199778       20.8449693906
  C         7.4059812889        8.7695537554       21.8006599310
  H        19.5710663720        5.1121190159        8.2783243783
  H        19.0458353402        6.6183377289        7.5007722983
  C        20.1909426886        5.4209437687        6.2039704492
  H         4.0549725760        9.1528545452        0.1931997868
  H         3.2663149393        9.7462914964        1.7219209105
  C         5.3025313319       10.5172810339        1.3152975470
  S        13.9501042527        1.2928323139       -4.5054277299
  C        13.5006433995       -1.2661971358       -5.1392291364
  H         8.1620946457        8.7198466824       21.0759098487
  H         7.5019967111        7.8624383346       22.3609883650
  H         7.5409459300        9.6204992156       22.4550568452
  H        21.1101359535        5.8348352775        6.6617698604
  H        20.4352899118        4.4252941561        5.9135071132
  H        19.8119110806        5.9821923527        5.3607020299
  H         5.4641769995       10.8496635886        2.2703392268
  H         6.2957590738       10.3185636006        0.9126281494
  H         4.7980291178       11.3585548272        0.7561420869
  C        14.5237324831        0.5748523068       -6.0263535460
  N        14.1691394366       -0.7745774037       -6.1832238304
  O        13.0349799654       -2.4167515892       -5.0349320992
  S        15.0478452034        1.4768265229       -7.4524206847
  C        14.2855624974       -1.4558787346       -7.4658042204
  H        14.5644808214       -2.4707921169       -7.1950019981
  H        15.1257772825       -1.1297059477       -8.0868294301
  C        12.9463341277       -1.3362793317       -8.1841072974
  H        12.2174223508       -0.7926543729       -7.5871059432
  H        12.6522304729       -2.3139279142       -8.4026975041
  H        13.0268546379       -0.7454144625       -9.1326163633
