352
 i =   114300, time =    57150.000, E =        99.0786594712
  H        10.5130057258        3.9212019346       32.6360285119
  C        10.5009423917        5.0288021615       32.6445299816
  H         9.4314341110        5.2446990377       32.6058667323
  C        11.3526696947        5.6645074398       31.5873410716
  C        10.9676463294        5.3521696347       34.0349626427
  C        10.4857044369        6.3857260101       30.5944643592
  H        12.0985244361        6.3242983563       31.9921449797
  H        12.0260360236        4.9654657419       31.0233339406
  H        10.9464561630        6.4412145466       34.2073843949
  H        10.2400908121        4.9231897060       34.6783276267
  H        11.9439711894        4.8930989238       34.1854262096
  C         9.9139728934        5.4648640809       29.4769726131
  H        11.1047597102        7.1911306625       30.1905351809
  H         9.6391258099        6.8936299555       31.0102158919
  C        10.4571554519        5.7754393680       28.0344390173
  H        10.1166322520        4.4204742901       29.6688838806
  H         8.8388274841        5.7263365766       29.4836140110
  C         9.5980011817        5.0618520417       26.9695818792
  H        11.4170207847        5.4499218089       27.9190300701
  H        10.3390230763        6.8333148251       27.8973291708
  C         8.3644030267        5.8943442707       26.6400606283
  H        10.0824718346        4.9989107741       25.9922445258
  H         9.2788610878        4.0562209657       27.2373046683
  C         7.2919319882        5.1578804075       25.8443176966
  H         8.0077632842        6.1532029882       27.5963095858
  H         8.6525971793        6.8730504857       26.1064125640
  C         6.8694906275        3.7850345479       26.4800750042
  C         7.7341421510        4.4850838038       24.4947677315
  C         6.0935849641        6.1451114089       25.6692960396
  C         6.9836307889        2.7397743815       25.6034779155
  C         6.3556048713        3.4098846465       27.7028864503
  C         7.5603511162        3.0955568142       24.3802708024
  C         8.2623442677        5.1807530538       23.4402036040
  H         6.3202193813        7.0869319012       25.1451032198
  H         5.7543303404        6.4180398708       26.6964294472
  C         4.8806026301        5.6185464426       24.9927227570
  S         6.6911460434        1.1605909960       26.3490838870
  C         6.2438553098        2.0411653253       27.8647706491
  H         6.1041997393        4.1407247086       28.3878849457
  C         7.9701430243        2.4532105716       23.2257836065
  H         8.4159183201        6.2465633297       23.5508092790
  C         8.5242657472        4.5615538669       22.2400538275
  H         5.3082239396        5.4769570274       23.9740273814
  H         4.4982275671        4.7147613697       25.4355997172
  C         3.6640844579        6.5997792045       24.9750071381
  C         5.6817512111        1.3240331556       29.0917021704
  C         8.3623739630        3.1652450645       22.0767686359
  H         7.8196391007        1.4275168148       23.2198088489
  C         8.8753457585        4.9992891073       20.9625339884
  H         3.0980049689        6.4080588733       24.0888593549
  H         4.1201730022        7.5941946694       24.7532966893
  C         2.7144626983        6.4850034973       26.2720240719
  C         5.7219291267       -0.0745097170       29.3050390089
  C         5.2436528663        2.1897204611       30.2370774442
  C         8.7117996660        2.5398020085       20.8382414393
  C         9.1008751077        3.9249049594       20.1505295843
  S         9.2003802567        6.5508221761       20.1820328616
  H         1.9327873446        7.2323570232       26.0964346157
  H         3.2639381800        6.9138866282       27.1125870795
  C         2.0871717615        5.1047626406       26.5358344575
  N         6.1493588369       -0.9853655610       28.3244815976
  C         5.2430141587       -0.6804974323       30.4501365262
  C         4.8581749029        1.4965991175       31.3685794667
  H         5.1453980924        3.2425683962       30.2469111971
  C         7.5466652568        1.7553378687       20.1139089904
  C         9.8900470320        1.6412713067       21.0090144215
  C         9.5608403549        4.2980030752       18.8941233675
  C         9.6228441778        5.6882553674       18.7514634450
  H         1.7784698557        4.7878962192       25.5119097476
  H         2.8906399825        4.4313397928       26.8161664684
  C         0.8261141929        5.1723838774       27.4845790615
  S         5.8387530757       -2.4754935702       28.9477801666
  N         5.4246365809       -2.1011876564       30.4246122759
  C         4.8071357612        0.0046089800       31.5321136796
  H         4.3619518712        2.0938195614       32.0813219159
  H         7.2531957126        0.9243478278       20.7327616380
  H         7.7972262845        1.2952374059       19.1830099998
  C         6.4252190196        2.5945213129       19.6074199761
  H        10.1470193149        1.3438732622       20.0378340448
  H         9.5928081122        0.7301834781       21.5530487712
  C        11.1003139655        2.4310180484       21.4756877825
  H         9.6373718079        3.5553954993       18.1468862717
  C         9.8099377393        6.3230840372       17.3332654130
  H         0.2435406850        4.2106391370       27.2510346928
  H         0.2025368499        5.9427171822       27.0330920349
  C         1.0562275803        5.3408515594       29.0381148697
  C         4.4790268397       -0.6917208888       32.7611365204
  H         6.8301689287        3.0721690454       18.7453006301
  H         6.2055010881        3.3516218436       20.3805358028
  C         5.0636343637        1.8776025159       19.1207028397
  H        10.8539347910        2.8608997325       22.4252802728
  H        11.3046484968        3.2754866579       20.7883862830
  C        12.4113970335        1.6172832437       21.4261406130
  C         9.8424658842        7.7239008068       17.1135690686
  C        10.2420282766        5.5368330919       16.1889567817
  H         0.7550926052        6.3412467619       29.3704673499
  H         0.4400133335        4.6780131658       29.6368897193
  C         2.5256069658        5.2066088362       29.4696539827
  H         4.3364393521       -1.7794850875       32.6836450493
  C         4.3441628943       -0.2805448609       34.0630297360
  H         4.5912443033        1.4417707898       19.9565062640
  H         5.3006450102        1.0451041988       18.4643099393
  C         3.9726924673        2.7310876369       18.4816015173
  H        12.3994545796        0.7113418171       22.0527946226
  H        12.2478331682        1.3658442362       20.4163956643
  C        13.7187306496        2.3797523861       21.6860857506
  N         9.4929234163        8.6461616030       18.0889421176
  C        10.1557763163        8.3546131546       15.9164409173
  C        10.5446534063        6.1367435239       14.9596279987
  H        10.2652966617        4.4844513955       16.1605335159
  H         2.6361435473        5.1869150168       30.5431851494
  H         3.0301187540        4.3109720483       29.1013788695
  H         3.2017498034        5.9817669189       29.0101881013
  S         4.3402631494        1.2840540556       34.7432883786
  C         4.3440812993       -1.3802167367       35.1062275797
  H         3.7720949083        3.5496053302       19.1905800212
  H         4.2587137496        3.2364814389       17.5857298590
  C         2.5799127574        2.0811212168       18.2594548547
  H        13.5659597403        3.1226605081       22.5139601880
  H        13.9414102822        3.1073370325       20.8883198545
  C        14.9369062115        1.4777575803       21.9760416392
  S         9.5212231796       10.1217129160       17.4323674783
  N        10.0154232687        9.7829547866       15.9220086379
  C        10.6248241060        7.5968108907       14.8387149291
  H        10.7700069910        5.5506156837       14.0427646352
  C         4.0886533407        0.4384897004       36.2905653537
  N         4.0648704054       -0.9086507225       36.2998362534
  O         4.4455197891       -2.5989125530       34.8540660189
  H         1.7358927012        2.7855186861       18.0511918384
  H         2.2021504793        1.6588834370       19.1789412934
  C         2.6681782066        1.0227301850       17.2243233794
  H        14.8032091213        0.9588688729       22.9291302739
  H        15.1007678071        0.7530497259       21.1913547029
  C        16.1801450073        2.3673810905       22.0175489965
  C        10.9292921680        8.2905901377       13.5828347818
  S         3.7173682144        1.2950809486       37.8339761480
  C         3.9752109188       -1.7503642166       37.4891685507
  H         2.1003465901        1.2492841749       16.3391449430
  H         3.6856096033        0.8478104263       16.8573479939
  C         2.1423516852       -0.4150945720       17.6783055580
  H        15.9644544615        3.2914853793       22.4870936466
  H        16.5370010774        2.5000860076       20.9843516333
  C        17.2166497300        1.7268841214       22.9303541773
  H        10.9002081571        9.3280056893       13.6931759065
  C        11.3517830851        7.9115605952       12.3508040299
  H         3.4308705634       -1.2850574891       38.2959167086
  H         3.5303079994       -2.7116391822       37.2483609010
  C         5.3895733448       -2.0815572694       38.0043198935
  H         1.1393855362       -0.4076369674       18.0233817680
  H         2.7866417345       -0.6162284401       18.5516636018
  C         2.1042432351       -1.4303047543       16.5650497207
  H        17.2075577876        0.6425639052       22.7832868027
  H        18.2395834685        2.1373245584       22.6920283691
  C        16.8674307483        2.1011015764       24.3485975265
  S        11.5907056435        6.3215022691       11.7443301752
  C        11.6091623611        9.0314648012       11.3595672475
  H         6.1059940852       -2.2873468562       37.2620338734
  H         5.6088578088       -1.1906475586       38.6321284223
  H         5.3080590738       -2.8933274876       38.7375249711
  H         1.4111863790       -1.0005309552       15.7885956694
  H         1.6632975592       -2.3772456086       16.8598185832
  H         3.0773738823       -1.4401712265       16.1007889327
  H        16.1751688103        1.3934467381       24.7492784038
  H        16.3464244500        3.0278166169       24.5970134870
  H        17.7377257325        1.9123394109       24.9972083078
  C        12.1602784026        7.0653882177       10.3020088592
  N        12.1091166299        8.4099388012       10.2534207458
  O        11.3509885861       10.2321012575       11.4870392063
  S        12.8136729982        6.1747565461        8.9167283318
  C        12.3374361815        9.1165327653        9.0097065282
  H        12.4178570511       10.1397011911        9.3201674413
  H        13.3420743804        8.9982164589        8.5406143635
  C        11.1472158677        8.9486799066        8.0633781402
  H        10.5272902373        9.7974618133        8.2958838830
  H        11.4624769355        8.9425462495        7.0783963904
  H        10.6240769167        8.0056586041        8.1671179562
  H         3.0723924382        3.9749099058       12.5607811391
  C         2.7352590776        2.9437281962       12.3768733117
  H         1.7547535262        2.8902540175       12.8070597055
  C         2.6613238814        2.6536668563       10.9031644936
  C         3.6871081050        2.1448728194       13.1102307101
  C         3.8898855294        2.7503516106       10.0534400637
  H         1.8669511839        3.2957809129       10.4348723669
  H         2.1840710522        1.6726742611       10.7499263795
  H         4.6754932162        2.1397263161       12.6140648005
  H         3.1974236682        1.2187592317       13.4059872870
  H         3.7835541313        2.6617045864       14.0918207369
  C         4.7104866792        1.4818212582        9.7859096499
  H         3.4626540155        3.1771477265        9.1501200773
  H         4.6278524957        3.4519471621       10.3954369169
  C         5.4781268997        1.4695781513        8.4705603852
  H         3.9628367673        0.6537744256        9.8725726270
  H         5.4301459805        1.3130690358       10.6251919498
  C         6.6780110583        2.3531451175        8.5134535195
  H         4.7846202286        1.7686390571        7.6947324548
  H         5.7705063531        0.4253919506        8.1621421284
  C         7.8576186738        1.6232856706        9.0276288071
  H         6.8085426683        2.7530824362        7.4565601296
  H         6.3809436285        3.1662981012        9.1555692665
  C         9.0297709544        2.6127515693        9.3499827910
  H         8.2676137543        0.7405923945        8.4363219140
  H         7.4736274453        1.0740570442        9.8936908872
  C         8.6134083406        3.8904766407        9.9450416288
  C         9.5653334071        3.3366288527        8.1449171252
  C        10.2227804937        1.8774281579       10.0891667684
  C         8.9278290406        5.0347503566        9.1584702066
  C         8.0556695934        4.3493661817       11.1824554908
  C         9.6217306361        4.6673038239        8.0119360369
  C        10.0316163338        2.6577420897        7.0361629685
  H         9.8442632474        1.6006747387       11.0030680750
  H        10.5394731089        0.9211792697        9.6568639383
  C        11.4603987671        2.7223838576       10.2719262446
  S         8.3666018709        6.5663122998        9.7260308350
  C         7.9564568136        5.7280485056       11.2082369749
  H         7.7481422876        3.6840522050       11.9285152982
  C        10.0353785905        5.2166951222        6.8309434885
  H         9.9947465533        1.5701493248        7.0806364055
  C        10.4121171089        3.2262253617        5.8497332814
  H        11.1632889773        3.7462671924       10.4628307379
  H        11.9635762608        2.7573668387        9.3239034414
  C        12.3136151499        2.0746466129       11.3456627508
  C         7.4772906610        6.5369107896       12.3553408413
  C        10.4577558854        4.5491539017        5.6936557529
  H         9.8596668385        6.2844652896        6.7812269574
  C        10.9129354607        2.7519030729        4.6478449547
  H        13.2164097980        2.6571295358       11.3686102598
  H        12.6297674733        1.0332002316       11.0195031383
  C        11.7829616141        2.1307958907       12.7370380992
  C         7.6894673815        7.9377706850       12.6234736098
  C         6.8066831986        5.7769474144       13.4317219182
  C        10.7498555568        5.1848939291        4.4065994464
  C        11.1416130630        3.8100149150        3.7856767541
  S        11.1231994139        1.1672165862        3.9131704052
  H        11.1724379725        2.9766890161       12.8576306694
  H        11.0182714341        1.3486494598       12.7850719653
  C        12.7894258477        2.0226556621       13.8333284533
  N         8.1375892649        8.8238833491       11.6368269111
  C         7.3585953741        8.5117170065       13.8181114390
  C         6.4420270224        6.3405920228       14.5959942545
  H         6.5899883295        4.7503580763       13.3188440973
  C        11.9942368896        6.1516542595        4.5198224273
  C         9.5709892429        5.8872858584        3.7179041081
  C        11.5223853323        3.3783029009        2.5348748790
  C        11.5259845915        2.0034527324        2.4096947522
  H        13.5812121972        2.7596823662       13.6700934438
  H        13.2485969095        1.0573764205       13.6975947657
  C        12.2743711390        2.0421583560       15.2576299336
  S         8.1684884906       10.3081578316       12.3343209433
  N         7.4774202907        9.9261534026       13.8091711142
  C         6.7505940402        7.7807255240       14.8812667518
  H         5.9612850691        5.6940470408       15.3448263679
  H        11.6994380563        7.0632942904        5.0830226748
  H        12.2397690501        6.4457298239        3.5237227120
  C        13.3052498988        5.5065641723        5.1086156213
  H         9.2396284587        6.5494628529        4.4258534666
  H         9.9487175964        6.5255383411        2.9511881692
  C         8.5184243679        4.8445833010        3.2753296800
  H        11.7386865172        4.0835352582        1.7840652748
  C        11.8053036444        1.1928222962        1.1527109901
  H        11.5953412267        2.8911976364       15.3419215942
  H        11.5672387424        1.2191382468       15.3742823763
  C        13.3667110473        1.9899426219       16.3347369935
  C         6.5195796609        8.4284437611       16.1288231338
  H        13.2851097120        5.2129870550        6.1819656790
  H        13.5047141607        4.5329153186        4.6181605222
  C        14.5211735774        6.3349339383        4.8547776247
  H         8.3021899696        4.0432970214        3.9716690260
  H         8.8996609134        4.5293719303        2.2858444075
  C         7.1384771542        5.4559252112        2.9243055798
  C        11.9533308715       -0.2072943101        1.0672990716
  C        12.0155294010        1.9376013781       -0.1419862056
  H        14.3103153868        2.1635517295       15.8447932466
  H        13.5088073247        0.9288753619       16.6303845113
  C        13.1432311145        2.8597820146       17.5302466837
  H         6.8306257916        9.4355843095       16.1276826857
  C         6.1005872670        7.9308830501       17.3600134140
  H        14.2129702038        7.4012714217        4.9272051269
  H        14.9495961262        5.9993362825        3.9536044145
  C        15.5400959601        6.2346022194        5.9432172780
  H         6.4402963618        4.9410848918        3.6470946336
  H         7.1484725538        6.4767842020        3.2058229900
  C         6.6077140805        5.0157116365        1.5273065087
  N        11.7605972998       -1.1239475124        2.1253511895
  C        12.2337027909       -0.8360474554       -0.1610098197
  C        12.3439477244        1.2502257298       -1.3170589854
  H        11.8261812185        2.9818243880       -0.2636620471
  H        13.9519816198        3.5655713881       17.6135801127
  H        13.1828530705        2.2500136567       18.4023009061
  H        12.1597759164        3.2528301821       17.5526875984
  S         5.8314465343        6.2750670507       17.8394816691
  C         5.9837862337        8.9521873523       18.4495383080
  H        16.1365368834        7.0432906334        5.7613902315
  H        15.1079911876        6.3305668904        6.9412031117
  C        16.3761451868        4.9918538095        5.8124000889
  H         6.5475010675        3.9191329157        1.3745656749
  H         7.4017876787        5.5070146232        0.9258175863
  C         5.2883738107        5.6210872268        1.1233985605
  S        11.8770379842       -2.5737248385        1.4878573382
  N        12.2484558413       -2.1927326152        0.0060690733
  C        12.4355542127       -0.2187185877       -1.4113719338
  H        12.3391723437        1.8006553410       -2.2972014953
  C         5.7433013484        6.8938777651       19.5109386828
  N         5.7987894346        8.2219763571       19.6011540658
  O         6.0283122113       10.1922837905       18.2528781434
  H        15.6857028059        4.1576249668        5.6618285372
  H        17.0282787397        5.0601522166        4.9164249208
  C        17.2515669988        4.6866361121        7.0035932770
  H         5.0143383317        5.2710258243        0.1579023194
  H         4.5398402387        5.2352429199        1.8299935670
  C         5.1925970605        7.1638715605        1.1014321512
  C        12.6928392453       -0.9983920810       -2.5153841544
  S         5.3612333914        6.0189245437       20.9100403271
  C         5.6783213277        9.0523484651       20.7412253200
  H        16.6056847523        4.8849958569        7.8488023361
  H        17.4674243196        3.5966721941        6.9816276321
  C        18.5581314163        5.4575853286        7.2055131170
  H         4.8733500125        7.4409175063        0.0569097441
  H         6.2086370115        7.5843781698        1.2675805100
  C         4.2411502060        7.9197438045        1.9665950089
  H        12.5742760112       -2.0296262913       -2.3749306898
  C        13.2915023092       -0.6924169443       -3.6979172513
  H         4.9439842205        8.6072259578       21.3878742384
  H         5.2612329206       10.0155181111       20.4313744132
  C         6.9641340903        9.2645594371       21.4990408383
  H        18.9199748352        5.3728003499        8.2295438439
  H        18.2150097918        6.4737559428        7.1874805425
  C        19.6118896114        5.2536827121        6.1112031159
  H         3.9544635431        8.8860693135        1.4904284712
  H         3.3615793472        7.2948733215        2.0109110493
  C         4.7252349367        8.4117032052        3.3801569464
  S        13.7647143179        0.8529856305       -4.3000999139
  C        13.3601871531       -1.8187110313       -4.7202779099
  H         7.7212198899        9.1421106613       20.7917751406
  H         7.0255304205        8.6213010300       22.3758444677
  H         7.0663236753       10.2783048362       21.9171848341
  H        19.7704976612        6.0920395939        5.5204016996
  H        20.6203282217        5.0449751009        6.6169408996
  H        19.4643151998        4.3551508173        5.4820201587
  H         4.7300990101        7.5249337270        4.0760892897
  H         5.6802052121        8.9300637940        3.4707895740
  H         4.0010120038        9.1307820508        3.7461589920
  C        14.1391607942       -0.0007177680       -5.8247258042
  N        13.9907759900       -1.3433961480       -5.8188499191
  O        13.1183255010       -3.0052432293       -4.5643969394
  S        14.6316530692        0.8548914128       -7.2269599704
  C        14.2068236822       -2.1246877389       -7.0824306699
  H        14.3230130486       -3.1416802269       -6.8613645140
  H        14.9662227642       -1.6832644412       -7.6221793103
  C        12.8591879843       -2.1993781582       -7.9363627267
  H        12.5094282498       -1.2410153409       -8.1749027158
  H        12.1401130069       -2.6679509388       -7.2448555616
  H        12.8379364171       -2.8455991579       -8.8649351447
