352
 i =   103400, time =    51700.000, E =       100.0355643979
  H        10.4052539002        5.1766885674       31.3544268352
  C        11.0646641111        5.9010681919       31.8131960862
  H        10.5469015067        6.8604040019       31.8599828159
  C        12.3033292806        6.1710464817       30.9345268796
  C        11.2982053720        5.2203375507       33.2239595939
  C        11.8891829781        6.6110895515       29.5298665243
  H        13.0520051989        6.8366929040       31.3313234338
  H        12.9029919294        5.3329135297       30.8916623234
  H        10.6016486094        4.4247173992       33.3488099424
  H        12.3651891366        4.8579760595       33.2948672739
  H        11.0850050651        5.9017996712       34.0529674759
  C        11.1355059725        5.4722981668       28.8531186679
  H        12.7584508474        6.9449132676       28.8988477794
  H        11.2229147295        7.3794252582       29.5394830289
  C        11.4630609814        5.4526405765       27.3460162238
  H        11.2727841561        4.4148351237       29.2783482575
  H        10.0575956438        5.6873987055       29.0382593758
  C        10.3859547420        4.8277080176       26.4075068079
  H        12.3266372278        4.7773376427       27.2971191486
  H        11.7472656405        6.3579252149       27.0045474388
  C         9.1471829094        5.7885866760       26.1586916663
  H        10.8714659868        4.5872622643       25.4734800024
  H        10.0037437154        3.9096636904       26.7865995222
  C         7.9099334145        5.1552370398       25.4633150750
  H         8.9244413572        6.4377911402       26.9699101187
  H         9.4549907228        6.4715426347       25.4131099422
  C         7.4542062574        3.8681974828       26.1582876693
  C         8.2731018192        4.3910542760       24.2534431340
  C         6.7679302957        6.2945847573       25.1382195807
  C         7.5771343924        2.7527439618       25.3995428733
  C         6.8752247803        3.5510195138       27.4534326404
  C         8.1518082378        3.0201655825       24.1991529148
  C         8.7577835062        4.9267666736       23.0725625169
  H         7.0186247033        7.0517700874       24.3698496580
  H         6.5621221341        6.8144982450       26.0317096089
  C         5.4680732408        5.6374067450       24.6139278386
  S         7.0876348800        1.3348531783       26.2199986457
  C         6.6570735163        2.1797634542       27.5846275526
  H         6.7558450580        4.3512753090       28.1625680316
  C         8.5531536462        2.2810588666       23.0652130224
  H         8.9628205334        6.0282100237       22.9829095860
  C         9.1174563240        4.2098640710       21.9696957816
  H         5.6351746940        5.4629399826       23.5951388880
  H         5.2917692250        4.7032785298       25.1626811859
  C         4.2200154410        6.4991642446       24.7258549928
  C         6.1944280430        1.5117453335       28.8206016762
  C         9.0082324163        2.8443948364       21.8833145755
  H         8.5338727456        1.2219541030       23.0322021405
  C         9.5355606094        4.5407962162       20.6879563447
  H         3.5814780971        5.9950045388       24.0208588790
  H         4.4561348866        7.4621764778       24.3439369230
  C         3.6887243406        6.5794423771       26.1598116696
  C         6.2719352962        0.1488409715       29.1334512872
  C         5.7562201924        2.3333443121       30.0194822610
  C         9.4092411215        2.1374108238       20.6158057829
  C         9.5808850788        3.4031830765       19.8179107264
  S         9.7315994538        5.9619352494       19.8655823178
  H         3.0109073014        7.3921933227       26.2299210646
  H         4.4891528451        6.9222594686       26.7399852861
  C         3.0622632137        5.3609681520       26.7544882661
  N         6.6397988420       -0.8027668664       28.2425616737
  C         5.9144280577       -0.4097196253       30.3564709960
  C         5.4369651891        1.7914726696       31.1937365415
  H         5.6608244091        3.3933768093       29.9521252141
  C         8.3293594109        1.2369597757       20.0541716232
  C        10.7546584010        1.3975211161       20.8734589599
  C         9.8881364819        3.7615437697       18.5320030855
  C         9.9462727798        5.1581422896       18.3846983333
  H         2.1997892586        5.0496907244       26.1052604305
  H         3.6424983886        4.4912225832       26.5760730982
  C         2.5151552275        5.5918532660       28.1611990189
  S         6.4420297579       -2.3063685187       28.9107556584
  N         6.0634478950       -1.8187874440       30.3770339458
  C         5.4765568455        0.3324574543       31.4681352259
  H         5.1986164456        2.5112622725       32.0211035952
  H         7.7972962393        0.7499203468       20.8946167007
  H         8.7609548917        0.3400572728       19.4860688102
  C         7.2065752265        2.0374144551       19.4947252280
  H        11.0271032516        0.8921921547       19.9682704966
  H        10.7301381425        0.5428731753       21.5675486032
  C        12.0099864970        2.3180939330       21.2411914705
  H         9.8189371383        3.1048680734       17.7486060717
  C        10.2457211293        5.9007208073       17.1103942473
  H         1.4983266838        5.1250525983       28.4150100086
  H         2.3781475224        6.6425910232       28.2108222703
  C         3.5464686752        5.0762970499       29.1408106862
  C         5.2613827536       -0.4302221420       32.6672100705
  H         7.5470967782        2.4478189965       18.5566074670
  H         6.9430070286        3.0389013481       20.0116288295
  C         5.9509227983        1.2760346351       19.3456449536
  H        11.7006087439        2.7806114816       22.1690289652
  H        12.2116451377        3.1794526335       20.5683811684
  C        13.3306404385        1.6380509144       21.6171639229
  C        10.2856621019        7.3636495927       16.9954822055
  C        10.4103467784        5.2421620446       15.8060241993
  H         3.6274210046        4.0174736539       28.9728109547
  H         4.5148642164        5.5465875270       28.8893836149
  C         3.1937076700        5.5767628078       30.5637917251
  H         5.1910861014       -1.5014166294       32.5766153097
  C         4.9028260295       -0.0095449295       33.9456010215
  H         5.3473845393        1.2282931727       20.2939063162
  H         6.1855501337        0.2795608530       19.0411426854
  C         5.1156023842        1.8980542508       18.2048868983
  H        13.2237707241        0.9518363408       22.4116270357
  H        13.6236188303        0.9672609689       20.7807653034
  C        14.5205412830        2.5678761523       21.9368730758
  N         9.8918711883        8.2357780136       18.0381206059
  C        10.5338587525        8.0409985252       15.8318229070
  C        10.6091857518        5.9016455081       14.5900732738
  H        10.2307427320        4.1963854619       15.7514175089
  H         3.9133947958        5.0903197841       31.2220021604
  H         3.2939687829        6.6786781441       30.6803748264
  H         2.2081383016        5.2146114446       30.7630400540
  S         4.6761211530        1.6666591927       34.5720144361
  C         4.8867712908       -1.0316457794       35.0946506477
  H         5.0670956504        2.9534912799       18.0877725262
  H         5.4779574096        1.6076464286       17.2372841572
  C         3.6577119626        1.2426151382       18.0950640358
  H        14.1708960846        3.3114377221       22.5322847373
  H        14.8018353328        3.0831709809       20.9731398221
  C        15.6550282446        1.7022540468       22.4915407931
  S        10.0664199318        9.7485799534       17.5213323078
  N        10.3813762189        9.4170135504       15.9857148622
  C        10.7942918411        7.4305875461       14.5723745296
  H        10.6996392824        5.3366533920       13.6839640557
  C         4.5303513131        0.9020214836       36.1905646029
  N         4.6188136445       -0.3916803172       36.3093088482
  O         5.1037572044       -2.2199235632       34.9167197712
  H         3.2507933386        1.4117839120       17.1033948856
  H         2.9453692701        1.7353159399       18.7984291299
  C         3.6016518481       -0.2894370232       18.2504894489
  H        15.4276389334        1.3594217740       23.4367543880
  H        15.8530632958        0.8823873067       21.7799808619
  C        16.9783035489        2.4564330055       22.6480271216
  C        11.1561889722        8.2325159079       13.4681810647
  S         4.1608875467        1.9094268742       37.6174064994
  C         4.7595980988       -1.1983965954       37.5896774412
  H         4.2485189549       -0.8005720875       17.4625308961
  H         4.0314320826       -0.5645036937       19.2271423068
  C         2.1998108759       -0.8713626912       18.1007972510
  H        16.8050010448        3.1543537615       23.4671126129
  H        17.1630984586        3.0091795374       21.7242402923
  C        18.1897882817        1.5610746992       22.8785948978
  H        10.8144189789        9.2432686828       13.5207639273
  C        11.5674376575        7.8041489988       12.1992961333
  H         4.1518292024       -0.8047810723       38.3769175074
  H         4.3583640019       -2.2058140417       37.4514358611
  C         6.2560221473       -1.2561707711       37.9552164530
  H         1.5129826665       -0.0428116625       18.0254508294
  H         2.0028737133       -1.4617370836       18.9811417530
  C         2.1080471158       -1.7236406560       16.9033427958
  H        18.3424784423        0.8444859634       22.0545023527
  H        19.0421547938        2.2028415717       22.6259224661
  C        18.2100559455        1.1358449184       24.3143698308
  S        11.8868806950        6.2316641186       11.5928130434
  C        11.7198558509        8.8785371159       11.2054711684
  H         6.4225317586       -1.1889315965       39.0448133083
  H         6.6832131656       -2.1259744582       37.5108532094
  H         6.8120425189       -0.4076921799       37.5214454736
  H         2.7648177684       -2.5668767659       17.0578210503
  H         2.3411417808       -1.2117334356       15.9461693198
  H         1.0593919233       -2.0373304641       16.8776727190
  H        18.9409014005        0.3884466668       24.4831871820
  H        17.2547166810        0.6736561470       24.6043534714
  H        18.3184251171        1.9559525725       25.0302629565
  C        12.2195445883        6.9952721339       10.0456466177
  N        12.2679983100        8.3709539533       10.0746949746
  O        11.4948275195       10.0426687670       11.4073669699
  S        12.9351724350        6.1763481221        8.6997927428
  C        12.4375493409        9.1826284747        8.8600990644
  H        12.6497867599       10.2640180401        9.0273302447
  H        13.2718980805        8.7163169409        8.2432809412
  C        11.0972589726        9.0766347279        8.0599559144
  H        11.3043893955        8.4909224550        7.1473254031
  H        10.3078714232        8.6076134892        8.7044895006
  H        10.8454178948       10.0676853872        7.9110619161
  H         2.7029831578        3.2162418727       12.4353956670
  C         3.1135501558        2.2041825756       12.6005863640
  H         2.2716209111        1.4958469667       12.4552580275
  C         4.3625957465        1.8623887766       11.6874907600
  C         3.4576944109        2.0269128395       14.0462081780
  C         4.1258237828        1.9595404574       10.1636081072
  H         4.7722119354        0.8826608715       11.8764800317
  H         5.1090525101        2.5927214509       12.0487365337
  H         2.6729086579        2.3184544746       14.6684834538
  H         4.3565526211        2.5865864075       14.3597161828
  H         3.4658990512        0.9639224810       14.3589173815
  C         4.9229012665        0.9097436624        9.3643049986
  H         3.0272223676        1.7535085233       10.0313408685
  H         4.3740915272        2.9880842332        9.8352975961
  C         5.6571909357        1.6110160200        8.1136987615
  H         4.2672463012        0.1197075918        8.9424712023
  H         5.6909985287        0.4621290557        9.9728140568
  C         6.7976579046        2.6188279531        8.5438473034
  H         4.8432815754        2.1431051080        7.5155860264
  H         6.1982234004        0.9584073147        7.3736830569
  C         8.1281534203        1.8368352037        8.8925213592
  H         6.9463879543        3.1733011331        7.6190768153
  H         6.4716640717        3.2349813150        9.4489590529
  C         9.3937249394        2.6744038831        9.1042440586
  H         8.3747019017        0.9848371083        8.2578177767
  H         7.9844774958        1.3710037039        9.8734753002
  C         8.9602879483        4.0143432978        9.7146770785
  C         9.8725796304        3.3134854713        7.9154236175
  C        10.5266885083        1.8699683685        9.8835574516
  C         9.2390177147        5.1281631131        8.9794080808
  C         8.5186941384        4.3778632745       11.0246647480
  C         9.7585057983        4.6581848352        7.7760978818
  C        10.3032565461        2.6551609675        6.7740078838
  H        10.1367154531        1.4191119540       10.7697243546
  H        10.7498834196        0.9566333049        9.3196552710
  C        11.7524201971        2.6936188081       10.1404446200
  S         8.7204295083        6.5844223306        9.7021791871
  C         8.3334956254        5.7478043587       11.1751007331
  H         8.4223573759        3.6157683951       11.7644795796
  C        10.1843628848        5.1813641372        6.5836756003
  H        10.3880317125        1.6438002027        6.8381159521
  C        10.5777491647        3.2209456454        5.5755389519
  H        11.5515411163        3.6201493203       10.6660203279
  H        12.1753702077        2.9388429032        9.2498722808
  C        12.7376592287        1.8962055339       11.0696039219
  C         7.7641397675        6.4351844063       12.4077091229
  C        10.6030192138        4.5491773718        5.4263028103
  H        10.1581101383        6.2864776543        6.4469614528
  C        11.0113680155        2.7807768781        4.3363954634
  H        13.6994523030        2.4597157345       11.0122435255
  H        12.8327845459        0.8456800581       10.7254163870
  C        12.2632270862        1.9309459252       12.5148499491
  C         7.9053502314        7.7933213437       12.6465301773
  C         7.4419826507        5.5702737813       13.5783530350
  C        11.0253552449        5.2153631494        4.1408521327
  C        11.3051689497        3.8333666008        3.4976031241
  S        11.2861787170        1.2203640217        3.6854401698
  H        11.6108563142        2.7482002957       12.6451898950
  H        11.6190276977        1.0647016440       12.6141632471
  C        13.3950764347        1.8491800494       13.5356094228
  N         8.0944919565        8.7810908962       11.6911268891
  C         7.6346820706        8.3084540981       13.9127751052
  C         7.1733068088        6.0878650131       14.8430945810
  H         7.2947425448        4.5155444290       13.3897132303
  C        12.3878771600        5.9516751019        4.1759891760
  C         9.9393446830        6.0128440204        3.3399775961
  C        11.7420695737        3.3292881576        2.2880788437
  C        11.7673555076        1.9866716856        2.1934401922
  H        14.0856979989        2.5926061680       13.2073783776
  H        13.8999650338        0.8349376031       13.4382787062
  C        12.9802437947        2.1624111446       14.9859548605
  S         8.0656454225       10.2122363122       12.4221560824
  N         7.7198716942        9.6840451695       13.9491330514
  C         7.2356280048        7.6143927521       15.0165071531
  H         6.7778610680        5.3451149361       15.5343612228
  H        12.3388946430        6.8884422414        4.7242287003
  H        12.5856538784        6.2763625374        3.2058130156
  C        13.5455452637        5.1996453701        4.7827511293
  H         9.5852487215        6.9579140909        3.7448136222
  H        10.4220095061        6.2689856288        2.3652780695
  C         8.6306059594        5.2423903785        3.0939724174
  H        11.8349953764        3.9937250852        1.4754998728
  C        11.8795321452        1.1952898635        0.8934797154
  H        12.4869126337        3.1144541203       15.1241146810
  H        12.2218400029        1.3642990753       15.1541284824
  C        14.0384289809        1.9023823847       16.0366483717
  C         6.8557141854        8.3072265501       16.2060352182
  H        13.3106885190        4.9228356067        5.7586106655
  H        13.6641168229        4.2234905733        4.2551797607
  C        14.9093363888        6.0283515518        4.6134165644
  H         8.1070795013        5.2281100560        4.0459351323
  H         8.7962078223        4.1628148165        2.9268542681
  C         7.7634816760        5.8943482377        2.0181051897
  C        11.8930565194       -0.2238194733        0.7181715906
  C        11.9897129259        1.9325261639       -0.4044164245
  H        14.9686404864        2.4323383499       15.9264286244
  H        14.1968358160        0.8267328839       16.1367617973
  C        13.6384150640        2.5348544025       17.3689107755
  H         6.9766563440        9.4012110809       16.2369143639
  C         6.6415161749        7.8395503091       17.4681576766
  H        14.7527203164        7.0113204658        4.9800808185
  H        15.0161403837        6.1240594505        3.5580766993
  C        16.0984580872        5.1989615541        5.3154730743
  H         7.5512984784        6.9467603231        2.3534765693
  H         8.3060904596        6.0562243658        1.0816449404
  C         6.4354896225        5.2296579893        1.9806866820
  N        11.7929988927       -1.1334920267        1.7536298669
  C        12.2284038873       -0.8507491208       -0.4359498286
  C        12.2894746971        1.2924772477       -1.6001700800
  H        11.9695426121        2.9701105761       -0.4764466118
  H        14.0709167709        3.5295743169       17.4417298038
  H        14.0326059010        1.9497717394       18.2382035172
  H        12.5970568213        2.7312084782       17.4721179692
  S         6.4334194316        6.2399317476       17.9262830753
  C         6.5003266958        8.8274114133       18.6061360306
  H        16.1048249044        4.1049182200        5.1875750337
  H        17.0842266048        5.5907103896        4.9834054753
  C        16.1068810272        5.3387339699        6.7727685668
  H         6.3296157457        4.3932417252        2.6923266921
  H         6.2475702720        4.8534343439        0.9686147653
  C         5.2159332683        6.1553835336        2.2499870648
  S        12.0787582417       -2.6312376783        1.2044851317
  N        12.4784726652       -2.2138976907       -0.2684110634
  C        12.4771217746       -0.1835347665       -1.6128459740
  H        12.4590179521        1.8717417784       -2.5156243480
  C         6.3502049122        6.8188187060       19.5570542241
  N         6.2317667377        8.1700892465       19.7102267943
  O         6.8725015160       10.0324816779       18.4743044593
  H        16.1489338581        6.3409707866        7.0066303899
  H        15.3016921881        4.7977483041        7.1922953720
  C        17.4345498135        4.7366338237        7.2768153334
  H         4.2950305028        5.6058419233        2.4389674471
  H         5.4776847126        6.6785605022        3.1733585386
  C         4.9080777837        7.0737914831        1.0475458007
  C        12.8265458768       -0.9110661065       -2.8079881467
  S         6.0715330353        5.8244858988       20.9165056567
  C         6.2032954737        8.8361420458       21.0088537791
  H        17.2281038223        4.2515367146        8.1947608731
  H        17.7353543929        3.8577826411        6.6465974205
  C        18.6421815220        5.6280290787        7.4423984264
  H         4.5961188689        6.4225952678        0.2110304103
  H         5.8642909304        7.4303069528        0.6375997091
  C         3.9676675045        8.2504468034        1.2738483321
  H        12.6058033903       -1.9902211627       -2.7240180945
  C        13.3344760625       -0.4594709357       -3.9829181364
  H         5.6561685361        8.3687281531       21.8285835927
  H         5.7120191439        9.8368204283       20.7808505443
  C         7.6673872304        9.0542921914       21.5215942235
  H        19.1021082258        5.3945153065        8.3846983366
  H        18.3852598939        6.6798638521        7.4695520921
  C        19.7108812148        5.2653057510        6.4020108131
  H         3.7458834050        8.5184825981        0.2139145584
  H         3.1162002120        7.8530333863        1.7685831710
  C         4.7478743316        9.3122139503        2.0059044910
  S        13.8632205900        1.0846746519       -4.4390052307
  C        13.4559955313       -1.4820176196       -5.0244312347
  H         7.6150188718        9.5072702453       22.4863575881
  H         8.3406499194        9.6069484801       20.8992417773
  H         8.0786149087        8.0306359957       21.7590660357
  H        20.0678270191        4.2866786115        6.2534458620
  H        19.2480089812        5.5454082448        5.4861374919
  H        20.5935087683        5.9994177269        6.4875863257
  H         5.6547419678        9.4328532345        1.5339518427
  H         4.1968755842       10.2543973702        2.3098916252
  H         4.8914348210        8.9132152234        3.0179199844
  C        14.0227430436        0.4209174732       -6.0812717632
  N        14.0039286691       -0.9314022856       -6.1368262534
  O        13.1723083983       -2.6719873686       -4.9681680864
  S        14.8670703251        1.2572297312       -7.3159617403
  C        14.3731031997       -1.6684374154       -7.3047098250
  H        14.7300038575       -2.6059582335       -7.0399752668
  H        15.0865404739       -1.1493513286       -7.8953916622
  C        13.1779988313       -2.1725967721       -8.1364773366
  H        12.4513263617       -2.7881281250       -7.5853599702
  H        13.5289664666       -2.7628129999       -8.9773812574
  H        12.5560697598       -1.3360016154       -8.4592877349
