352
 i =    62600, time =    31300.000, E =        98.2704740565
  H        11.9901988887        5.3393103460       32.3479381308
  C        10.9238045408        5.4873655085       32.6104247284
  H        10.4313919444        4.5212289656       32.6462245339
  C        10.2526707397        6.3056436277       31.5258341056
  C        10.9384170735        6.0426414000       33.9489308813
  C        10.1863706822        5.4840748739       30.2622751801
  H         9.2454686042        6.4217660956       31.9686036350
  H        10.8379871467        7.2620341194       31.3653559957
  H        11.2138243486        5.4390324820       34.7749640850
  H        11.6207079751        6.8781731526       33.8824794438
  H        10.0071047832        6.5366548607       34.2972825536
  C        10.3471506987        6.3134213936       29.0175396578
  H         9.2099249329        5.1088948630       30.2569514007
  H        10.8522180512        4.5656983701       30.1997272337
  C        10.6074438834        5.5287326340       27.7656669713
  H         9.5470442337        6.9325591858       28.8685536139
  H        11.2295187880        6.9473045014       29.0977909940
  C         9.4408013942        4.9900546393       27.0130597267
  H        11.4085468308        4.7707586980       28.0182978454
  H        11.1275000772        6.1964265092       27.0573810087
  C         8.4590953401        6.0500091246       26.4074326892
  H         9.8300180750        4.4236164956       26.1626655623
  H         8.9168569870        4.3276872975       27.6756638942
  C         7.2783473696        5.4577484096       25.6535357483
  H         8.2530800771        6.6512656974       27.2995954198
  H         9.0226592054        6.7925531828       25.7832970236
  C         6.7813077720        4.1193248107       26.2410318352
  C         7.6245822778        4.7560433816       24.3706325755
  C         6.0538079356        6.4284701134       25.5347756023
  C         6.9187743008        3.0483782429       25.3910057552
  C         6.0932316630        3.6730585240       27.4142365958
  C         7.5271662165        3.4052341874       24.2122967946
  C         8.1848538777        5.4094925198       23.2949946756
  H         6.3729291838        7.2764890130       24.8852309067
  H         5.5625664704        6.7230821697       26.4902507419
  C         4.9900837161        5.8154652525       24.5835476664
  S         6.5054855362        1.4981518814       26.0444764830
  C         6.0056574679        2.3408314307       27.4930322818
  H         5.7841349242        4.3553499591       28.2040894944
  C         7.9600249211        2.7573944994       23.0685999689
  H         8.2772879759        6.4151265420       23.2624686646
  C         8.5590324926        4.7487188148       22.1630854816
  H         5.4065914642        5.6095318892       23.6142868872
  H         4.5355190913        4.9403513045       25.0127329499
  C         3.7873275012        6.8284106742       24.4538751483
  C         5.6741988652        1.5886647556       28.7935582171
  C         8.5041404045        3.4306942645       21.9702786403
  H         7.8578639294        1.7384284378       23.1915765617
  C         8.9321788600        5.1897994898       20.9296377546
  H         3.3321350916        6.7944231138       23.5314153535
  H         4.2602154639        7.7864781265       24.4107537131
  C         2.7856622029        7.0220451356       25.5731031200
  C         5.8270938123        0.2152233906       29.0406795844
  C         5.1584024319        2.4093128966       29.9104691483
  C         8.8356112380        2.7066972976       20.7036002218
  C         8.9980363419        4.1061870045       20.0647532701
  S         9.2209968560        6.7055585176       20.1649720739
  H         1.9832482560        7.7636965801       25.4065053970
  H         3.3246110212        7.3965280061       26.4679395296
  C         2.2918484950        5.6887579447       26.1230337689
  N         6.3544837081       -0.6526363810       28.0913769961
  C         5.5983223722       -0.4039030925       30.2302588774
  C         4.9509833942        1.7447168623       31.1403443717
  H         4.9457991876        3.4741756927       29.8504347729
  C         7.7015168223        1.9243258247       20.0883634762
  C        10.1141351478        1.8087524789       20.8667296057
  C         9.1845117021        4.5790372215       18.7442783436
  C         9.4594287960        5.8926832318       18.6486435904
  H         1.7689836197        5.0966347765       25.3977556379
  H         3.1535911386        5.1262290170       26.4852898388
  C         1.3250647116        5.8376839228       27.3379402877
  S         6.1822403938       -2.1743550430       28.6031369321
  N         5.7542534578       -1.7914486416       30.1318988547
  C         5.3008103501        0.3246400501       31.4049040120
  H         4.5610619355        2.2896934719       31.9410959822
  H         7.4304298236        1.0679680231       20.6740932245
  H         8.0996551201        1.5192333993       19.1240793212
  C         6.4511007899        2.6844603137       19.6431916033
  H        10.2696464698        1.2945883209       19.9547945329
  H         9.8805464964        1.1092698920       21.6704497646
  C        11.4241993377        2.5352048579       21.1760326321
  H         9.1532626097        3.9108380089       17.9619971368
  C         9.8466875377        6.5868405183       17.3492731131
  H         0.5469767752        5.1116829685       27.4241761079
  H         0.7007095212        6.6559134541       27.1563821272
  C         2.0910487283        5.8566773456       28.7525297212
  C         5.0644665884       -0.3615691207       32.6629158168
  H         6.5574293352        3.2965543553       18.7133441826
  H         6.0717044668        3.2891444117       20.4484587108
  C         5.3441366176        1.7889179649       19.2749610385
  H        11.4189972139        3.0828474684       22.0850313896
  H        11.6255657041        3.2706054052       20.3428422555
  C        12.5488153657        1.4921565609       21.2777412164
  C         9.9875239151        7.9706769474       17.1776256281
  C         9.9949220606        5.7827113183       16.1003345915
  H         2.7284612292        5.0204338300       28.7877481089
  H         2.6935333760        6.7018276504       28.9600394382
  C         1.1124923552        5.7626367522       29.9359229915
  H         5.3455812580       -1.4167716149       32.6109151805
  C         4.7202888619        0.0650105403       33.9076526514
  H         5.0486083950        1.2596130678       20.2068133120
  H         5.7829383662        0.9978003753       18.7047844278
  C         4.1239898976        2.5019655358       18.6666755883
  H        12.1074300563        0.8208456616       22.0362992936
  H        12.6478951443        0.9077353234       20.4048188532
  C        13.9613163075        1.9335330107       21.5567932465
  N         9.8062164129        8.8977329530       18.1933451139
  C        10.2773889743        8.5441588083       15.9901856483
  C        10.2882110251        6.3753650477       14.9160898724
  H         9.6757555153        4.7608779375       16.0507374893
  H         0.3364583298        4.9638425631       29.8282217423
  H         1.6777019040        5.4182596788       30.7927862876
  H         0.7538636604        6.7511778868       30.1645889862
  S         4.2844482526        1.7063645266       34.3656361751
  C         4.6254303590       -0.9249466866       34.9789888424
  H         3.7580584390        3.3776807220       19.2716213269
  H         4.5028537233        2.8858754361       17.7381081380
  C         2.8991330909        1.6510714546       18.3554216208
  H        14.1497168856        2.7869263857       20.9320328851
  H        14.6345941687        1.1769626973       21.1547809496
  C        14.2598306268        2.1771438409       23.0331807289
  S         9.8231143175       10.3610981037       17.4936126908
  N        10.2834973802        9.9031809774       15.9980959758
  C        10.3962432366        7.8628684512       14.7672624036
  H        10.3721339672        5.7894701808       14.0749066286
  C         4.0959699702        1.0144202380       35.9291701152
  N         4.2538897600       -0.3214818082       36.0771285488
  O         4.6740737482       -2.1179015506       34.8222829207
  H         2.1482212994        2.4296714328       18.1671062413
  H         2.4607030553        1.1949808813       19.2334793290
  C         3.1271159122        0.6242735396       17.2515111617
  H        13.4182418231        2.2510916336       23.6516455531
  H        14.7094762382        1.3155490438       23.4716867549
  C        15.0903110172        3.4094083120       23.1901509754
  C        10.6685774358        8.5375532180       13.5837423658
  S         3.4004756667        1.7673187451       37.3262650724
  C         4.0210424884       -1.1393800761       37.3149773988
  H         2.5973239802        0.8815409738       16.3598066490
  H         4.1885410719        0.7374050436       16.9603619767
  C         2.9902383080       -0.8862908813       17.7470744669
  H        15.2947374004        3.5579757829       24.1615593276
  H        14.4587069274        4.2533954233       22.8559633225
  C        16.4040384391        3.4308719653       22.4375295275
  H        10.3913193746        9.5474875021       13.6426478721
  C        11.1206478812        8.1119378749       12.3987566928
  H         3.0246835946       -1.1411948959       37.7123541976
  H         4.2305016939       -2.1877108938       37.1333580917
  C         5.0756500262       -0.9040045109       38.3919672686
  H         3.6389296904       -1.0405526659       18.5836923953
  H         3.4033298962       -1.5763683875       17.0090349256
  C         1.5487661705       -1.0820184529       18.1252790249
  H        16.3140498240        3.2075908945       21.3295420561
  H        16.7822854703        4.4973037938       22.3665814474
  C        17.5910112681        2.6753620838       23.0666352328
  S        11.6365443147        6.4668911881       11.9441439637
  C        11.2240857639        9.1252700431       11.3321340393
  H         5.6992602009       -0.0862375219       38.0957502527
  H         4.6974671732       -0.7449050000       39.3995802049
  H         5.7403812304       -1.7888294731       38.4222756679
  H         1.2088088378       -2.0992659501       18.0296586650
  H         0.8758264850       -0.5248246673       17.5050768719
  H         1.3206079741       -0.7878870520       19.0814661481
  H        17.5864578619        2.6797131595       24.1281942922
  H        18.5675807541        3.1414398919       22.7599027850
  H        17.6378013368        1.6613190939       22.6238241534
  C        12.0834217062        7.2522320465       10.3890727489
  N        11.8132878399        8.5825181097       10.2533140279
  O        10.8531162626       10.3141807915       11.4915065028
  S        13.0076239089        6.3510813346        9.2278823238
  C        12.0429533026        9.3643593385        9.0901472707
  H        12.2316958741       10.4514108669        9.3243562630
  H        12.9757696933        9.0041750968        8.7408959529
  C        10.9743500408        9.1102365116        7.8907076829
  H        11.0371500748        9.7760518593        7.0566711055
  H        11.1757761488        8.1560291892        7.4187707419
  H         9.8970232125        9.1617032905        8.2057706995
  H         4.5925251721        1.7521123080       12.6001375449
  C         3.9418756459        2.5733380239       12.7450162632
  H         4.5978862122        3.4935979605       12.7833000994
  C         2.9637031115        2.7742422938       11.5562593458
  C         3.2419914996        2.3846100480       14.1411871064
  C         3.7695406931        3.0736289949       10.2441462878
  H         2.2318897578        3.5554668187       11.9055702182
  H         2.4410350273        1.8430476306       11.2422101991
  H         4.0763108462        2.1831055688       14.8350931803
  H         2.6642460040        1.5277400533       14.0761904890
  H         2.6504617119        3.2095681945       14.4956115605
  C         4.1744568226        1.7671824322        9.5124202268
  H         3.2028792056        3.8332001375        9.5808613928
  H         4.6113649152        3.7049966330       10.6142195271
  C         4.9028004556        2.1301111390        8.2151361893
  H         3.2524026311        1.1796942628        9.2473752397
  H         4.7778125476        1.1336491843       10.1904393748
  C         6.1999875718        2.9289327378        8.2911859076
  H         4.3321395770        2.8862428179        7.6933629044
  H         4.8671692052        1.3630523258        7.4783820769
  C         7.3954109437        2.1542646436        8.8701834996
  H         6.3999096548        3.2287659600        7.2707919538
  H         5.8901239342        3.8728114137        8.7561381481
  C         8.6818722045        3.0015820734        9.0848866537
  H         7.7059194256        1.3499164145        8.2347651324
  H         7.0647123367        1.8085503831        9.8336022064
  C         8.3758450183        4.3452046710        9.7520676394
  C         9.2634902506        3.6658913546        7.8906585395
  C         9.7400662128        2.2197543118        9.9982955357
  C         8.6794312440        5.4688182189        8.9550002663
  C         7.8716081721        4.7336026236       10.9789038315
  C         9.1666560184        5.0364589448        7.7224575332
  C         9.8664815399        3.0200170628        6.7488259089
  H         9.1168882354        1.7918620341       10.7987370215
  H        10.0829256987        1.3756222145        9.3703615304
  C        11.0071454228        3.0448047024       10.5218999024
  S         8.4048938308        6.9623766980        9.7924895841
  C         7.9084330385        6.0754805667       11.1505100300
  H         7.6488118111        3.9069796563       11.6673463748
  C         9.6660949961        5.5796471916        6.5661929671
  H         9.6573078380        1.9725600521        6.6458625117
  C        10.2555956932        3.6022255825        5.5644844489
  H        10.7423203494        3.9808204631       10.9380939041
  H        11.7496699321        3.2318157234        9.7949091428
  C        11.6801120741        2.3463906259       11.6684866304
  C         7.5139034490        6.7700713446       12.3673354962
  C        10.2403298306        4.9305371003        5.4264334044
  H         9.6401104097        6.7046068636        6.5342378807
  C        10.6647374610        3.1344230252        4.3279332589
  H        12.7227107179        2.6867117210       11.8384485253
  H        11.8090693780        1.2178265030       11.4041349441
  C        11.0137779538        2.5012539459       13.0761663915
  C         7.5210320898        8.1479615095       12.6453449548
  C         7.1993198333        5.9153182960       13.5244567879
  C        10.6627781038        5.6416207287        4.1368878018
  C        10.9831482695        4.1934301284        3.5059743234
  S        10.8366365728        1.5398834387        3.5212922361
  H        11.1201096034        3.6227132728       13.3033742851
  H         9.9681262968        2.3151233244       13.2217854326
  C        11.7614737362        1.7779170914       14.2221930838
  N         7.8408453357        9.2231501076       11.7451734129
  C         7.2708079807        8.6501498266       13.8956841430
  C         6.8977586004        6.4628041182       14.7981745227
  H         6.8292004755        4.9095726353       13.3990210424
  C        11.9018503305        6.4300634414        4.4362009433
  C         9.6496435944        6.4546073518        3.2417445344
  C        11.3279827048        3.7008210325        2.1909345967
  C        11.2882258292        2.3168704648        2.0867106641
  H        12.8782731058        1.6940454180       13.8900345250
  H        11.5042657598        0.7296287794       14.3659194927
  C        11.8382833893        2.4898208095       15.5040247585
  S         7.5603806149       10.6282279388       12.5272114074
  N         7.3180288456       10.0069627928       13.9973880605
  C         7.0292006536        7.9154558646       15.0276183166
  H         6.6249784687        5.8462076506       15.5939419901
  H        11.5914260414        7.4410479734        4.8962644514
  H        12.4235166888        6.6477764289        3.4957375303
  C        12.9578614582        5.6373833890        5.2600032708
  H         9.1766239921        7.2434590869        3.8488016542
  H        10.3630485053        6.9649138960        2.5580823048
  C         8.5546699537        5.5913162121        2.5355579531
  H        11.5011568150        4.4438288255        1.4693898911
  C        11.5798782606        1.6051893188        0.7805174887
  H        12.0274574860        3.5080690147       15.3776665051
  H        10.8458909547        2.5506456917       15.9165706710
  C        12.8699894700        1.8381917256       16.3482316793
  C         6.7678211823        8.6442225675       16.2485575215
  H        12.5155713210        5.4001190993        6.1816638394
  H        13.2543645055        4.6489483778        4.8326512560
  C        14.2049232493        6.5120234282        5.5749207043
  H         8.1220821786        5.0487870876        3.4061444604
  H         8.9704943076        4.8761288512        1.8490346836
  C         7.5410745527        6.4492539498        1.8597923655
  C        11.6311864052        0.2139236083        0.6728007808
  C        11.8020365764        2.3353427310       -0.4826597513
  H        13.8291866420        1.7354425257       15.9266414837
  H        12.5639670935        0.8763675577       16.5778530057
  C        12.8762617152        2.6251947363       17.6401806206
  H         6.8315948234        9.7190039034       16.2843623032
  C         6.4546601312        8.2107253515       17.5120328232
  H        14.0460876721        7.1892764711        6.4467325686
  H        14.4415192598        7.2320870582        4.7448729947
  C        15.3821965680        5.5908466133        6.0048074885
  H         7.3279793698        7.2354511856        2.4987436848
  H         8.1094089721        6.9536554399        1.0518253572
  C         6.2057241063        5.7540170330        1.4874406499
  N        11.5291975935       -0.7026256895        1.7542593722
  C        11.8281027260       -0.4699500921       -0.5745092147
  C        12.1502246820        1.6499743503       -1.6558752311
  H        11.8531882839        3.3681867870       -0.3892727894
  H        13.4644579916        3.5639426156       17.5614502189
  H        13.2940239233        2.0517894366       18.3997931955
  H        11.9038106161        2.7381566945       18.0329341959
  S         6.1488019605        6.5668304304       17.9773369536
  C         6.3705248885        9.1734097555       18.6218093723
  H        15.0398695983        4.9763036199        6.8696756554
  H        15.5133468831        4.8095617294        5.3165771019
  C        16.6889243526        6.3187411504        6.3478699576
  H         5.8916928080        4.9655221526        2.1185780853
  H         6.4817971162        5.1870034010        0.6115346780
  C         5.2248998207        6.8572281986        1.1604393360
  S        11.3011194148       -2.1751254281        1.1621078127
  N        11.7830707072       -1.8570440594       -0.3693435814
  C        12.1439621365        0.1681323961       -1.7768215201
  H        12.3574179524        2.2071406555       -2.5587938083
  C         5.8063647687        7.1798122907       19.6078054718
  N         5.8689619771        8.5443620128       19.7230343819
  O         6.5782802581       10.3623875665       18.4730943076
  H        17.3982458571        6.2328417251        5.5798165312
  H        16.5249601587        7.3866644300        6.5771041580
  C        17.3388767242        5.5296287432        7.5862639323
  H         5.7321222058        7.5292520471        0.4104901891
  H         4.3573616352        6.4749459099        0.5402891328
  C         4.7520585751        7.6224565158        2.4108380461
  C        12.4939000273       -0.6045597230       -2.9591249475
  S         5.3646878484        6.1985357488       21.0097256960
  C         5.7333525073        9.2347353799       21.0132342467
  H        16.7722768144        5.6759863042        8.4477769050
  H        17.3367161601        4.4499509013        7.3266449819
  C        18.7363782960        6.0309296630        7.9153880927
  H         5.4913736802        8.2718892374        2.8428226831
  H         4.4609592673        6.8623379409        3.0905291570
  C         3.4806770591        8.4201962957        2.0569642198
  H        12.2925569284       -1.6548241154       -2.8719385770
  C        12.9240548582       -0.2782237696       -4.2360591511
  H         5.0713292121        8.7443258040       21.7153139208
  H         5.2802645655       10.1738291104       20.8269001703
  C         7.0446946704        9.4008679673       21.8214490560
  H        19.0917583822        5.5418984218        8.8372399019
  H        18.6588875776        7.1270383039        8.0852507541
  C        19.7560865628        5.8007811684        6.7340044442
  H         2.6929431467        7.7854578763        1.5769140515
  H         3.0790743646        8.7646463490        3.0407887028
  C         3.7809496759        9.6048721453        1.1157587140
  S        13.4365285782        1.2276171871       -4.7728171400
  C        13.0792307696       -1.3418451647       -5.2592549652
  H         7.8509536958        9.5305913753       21.1920175062
  H         7.2993582002        8.6405738089       22.6672376964
  H         7.0214163454       10.3736766893       22.2976437836
  H        20.7828528874        6.0561866121        7.0741719125
  H        19.7176245426        4.7426923936        6.4264280986
  H        19.5852760108        6.4759470961        5.8584114397
  H         3.2104537228       10.5516445724        1.2874232925
  H         4.7722842064        9.8642290953        1.4265575102
  H         3.7105043365        9.3891168485        0.0640046882
  C        13.6867720107        0.4909616927       -6.3804486614
  N        13.5506882404       -0.8397784382       -6.3741285546
  O        12.7448754718       -2.4867926526       -5.0876823238
  S        14.3347801457        1.3668062272       -7.8095302262
  C        13.7808691302       -1.6714742866       -7.5470525957
  H        13.9676667244       -2.6858789611       -7.1648414622
  H        14.6473464155       -1.3746916622       -8.0774111903
  C        12.5469585917       -1.6447647980       -8.3863276041
  H        12.7480776986       -2.4752386034       -9.1119009983
  H        12.4938247022       -0.6780047403       -8.9550592768
  H        11.6408817541       -1.7601622746       -7.7343344409
