352
 i =   120200, time =    60100.000, E =        99.5502861798
  H        10.2108608140        6.8149542682       32.0309257481
  C        11.0364679514        6.2259681143       32.3632948963
  H        11.7594349619        6.9468352999       32.7023682101
  C        11.6397585778        5.6417855797       31.1156104624
  C        10.5236346883        5.1916246497       33.4289351659
  C        10.6557089469        5.5210444203       29.9295626130
  H        12.5716015687        6.1994667364       30.8213659642
  H        12.0045888865        4.6173311610       31.3040254902
  H         9.7088759561        4.6580575709       32.9532234560
  H        11.3987908735        4.5249575225       33.5955455426
  H        10.3179273807        5.6275176532       34.3852171811
  C        11.3662818174        4.8885456815       28.6986627221
  H        10.3348917913        6.5448797820       29.7339541156
  H         9.8296825657        4.9113272673       30.3096939954
  C        10.8728992302        5.3786247986       27.3240465609
  H        12.4658759994        5.0711461512       28.6262818918
  H        11.2917740332        3.8171416666       28.8523044734
  C         9.5110671374        4.7714209658       26.9306564806
  H        11.5935795976        5.1028364022       26.6119995004
  H        10.7684689751        6.4295678983       27.3164445259
  C         8.3777472227        5.7567018323       26.5065427059
  H         9.7125425044        4.0230345906       26.1927695444
  H         9.1687377834        4.2209411659       27.8324286097
  C         7.1834773195        5.0579317265       25.7524364566
  H         8.0834733343        6.3576917498       27.3492999552
  H         8.7891242192        6.5061822365       25.8026494516
  C         6.8531567624        3.7435596652       26.4580178055
  C         7.5915380325        4.3501256402       24.5083649670
  C         5.9921166690        6.0262034359       25.6954321772
  C         7.1168951160        2.6525033769       25.6384239463
  C         6.3996058065        3.3722981184       27.6916843087
  C         7.5440129307        3.0199189062       24.3773467799
  C         7.8479403362        4.9883729732       23.2836289193
  H         6.2649088974        6.8186065698       25.0050584658
  H         5.8294948707        6.4843219069       26.6465716566
  C         4.7358374003        5.4000200228       25.1115788972
  S         6.7226953070        1.1716439954       26.4112516673
  C         6.2578612740        2.0206746195       27.8324864897
  H         6.2515379319        4.0508741511       28.4719688725
  C         7.8347709510        2.3526112728       23.2146722946
  H         7.8418923477        6.0564684653       23.3393731278
  C         8.1863823411        4.2978615335       22.0971502115
  H         4.8553273161        5.2441976156       24.0198870161
  H         4.5463162408        4.3935101679       25.4354084544
  C         3.4289011916        6.2201014712       25.1535892790
  C         5.7644439016        1.2944712380       29.0095195090
  C         8.1499418356        2.9978784020       22.0169120361
  H         7.8530770073        1.2984307085       23.2103626905
  C         8.6208654966        4.7527390755       20.8811161422
  H         2.7305865964        5.8819761099       24.3873317677
  H         3.7785476317        7.1899172064       24.8202437247
  C         2.7554342973        6.3224070218       26.5561148161
  C         5.8351497207       -0.1117143996       29.2765169092
  C         5.1963707838        2.1090566940       30.1425087014
  C         8.6068811425        2.3467068540       20.7818900277
  C         8.9518117272        3.6876788359       20.0895464111
  S         8.9783272554        6.3086695582       20.1332873338
  H         1.8416416957        7.0046294256       26.5061077894
  H         3.3041423298        6.6142048787       27.4369453240
  C         2.1161146140        4.9644444099       26.8733364955
  N         6.3171588162       -1.0151539444       28.3591535304
  C         5.3844124400       -0.6789298208       30.4251810921
  C         4.7940208623        1.5205563223       31.3542503573
  H         5.1279282437        3.1965752825       30.1412562044
  C         7.4436395225        1.6416489204       20.1290415528
  C         9.8639935670        1.5376015044       21.1202575088
  C         9.3963009055        4.1134838106       18.7743603083
  C         9.3777959300        5.4977556512       18.7010904870
  H         1.6329721027        4.5090360148       25.9956455394
  H         2.7814240757        4.1813058654       27.0528218400
  C         1.0345572997        4.9185077701       28.0164733304
  S         6.0639923957       -2.5295499361       28.9515793959
  N         5.6192145909       -2.0929684834       30.4477184352
  C         4.9249254400        0.0511022350       31.5320585548
  H         4.5416083576        2.2940667954       32.1090745341
  H         7.0517680088        0.8759577505       20.7897564610
  H         7.8140923085        1.0196678890       19.2879356252
  C         6.3795982657        2.5293831180       19.5117141246
  H        10.2263350723        1.3984531527       20.1311438328
  H         9.6147816556        0.5439221206       21.6570184758
  C        10.9837095680        2.3516695816       21.7872985474
  H         9.5800513431        3.3329834053       17.9793038143
  C         9.6243949967        6.2339078029       17.3927572032
  H         0.7077926710        3.8891839952       28.1424944722
  H         0.1627961805        5.4492281700       27.7032882162
  C         1.5188252545        5.5212861657       29.3660944744
  C         4.7497150971       -0.6503708100       32.8212423132
  H         6.8149814204        2.7186470567       18.4881452835
  H         6.1566793937        3.5150362438       20.0211921384
  C         5.0604643354        1.7690041356       19.3422738079
  H        10.6554831996        2.8434698598       22.6728451744
  H        11.3253378070        3.1721970688       21.1446144059
  C        12.2712725082        1.5027486132       21.9531756544
  C         9.7009500519        7.5836865649       17.1785880385
  C         9.7943044703        5.5007455799       16.1302911592
  H         1.6582764278        6.5912137676       29.3661007861
  H         0.7648748316        5.3124427079       30.1490955043
  C         2.7850803969        4.8444364142       29.8318045785
  H         4.9670190146       -1.6812375973       32.8468737199
  C         4.4222984922       -0.1912731044       34.0646823850
  H         4.7069770853        1.3987601780       20.2851187478
  H         5.2102770553        0.9431139901       18.7038614660
  C         4.0073057463        2.6481771547       18.7759502979
  H        12.0065554646        0.8913548904       22.8847297127
  H        12.3709889616        0.8894995633       21.0711501161
  C        13.5690575238        2.3845328272       22.2508694903
  N         9.5053039472        8.5245664691       18.2576211414
  C        10.0421703374        8.2782460028       15.9908169606
  C        10.1643803037        6.0818346358       14.9229247661
  H         9.4496133761        4.4564161229       16.1318380650
  H         3.1241368595        5.0309816617       30.8799953309
  H         2.7974574057        3.7702460240       29.7482856622
  H         3.5464510415        5.2637233568       29.1562528875
  S         4.0732667947        1.3608645398       34.5990161123
  C         4.5083026733       -1.2037083987       35.1945687358
  H         3.8964694038        3.5261853566       19.4250601687
  H         4.3459406745        2.9281797482       17.7660001813
  C         2.7020538327        1.8128133738       18.6860929684
  H        13.2251692833        2.9114310005       23.2126722164
  H        13.7583326046        3.1553120140       21.5304223894
  C        14.7800092545        1.5613295991       22.6085097595
  S         9.6145395361       10.0523030808       17.5972065813
  N        10.0878535786        9.6782506741       16.1070761972
  C        10.3373308999        7.5462912392       14.7955939518
  H        10.1841813167        5.5629447542       14.0006453829
  C         3.8961939905        0.7532222475       36.2647221009
  N         4.0966455181       -0.6437288417       36.3549871596
  O         4.8278613805       -2.4161416559       35.0121327652
  H         1.8496001163        2.4015610679       18.2986866820
  H         2.3741328134        1.5248844718       19.6946855729
  C         2.7020480617        0.5026466971       17.7741227115
  H        14.7692205085        1.2968990317       23.6580179071
  H        14.7097000147        0.5524973899       22.1875235165
  C        16.0596548987        2.2779657624       22.1968910679
  C        10.6348428591        8.2440217746       13.5437403901
  S         3.9812611215        1.7092590408       37.7442380492
  C         4.3488106274       -1.4575077884       37.5717434711
  H         2.6488399328        0.8837341674       16.7255782820
  H         3.6654454312       -0.0452021379       17.9585791207
  C         1.6283024222       -0.5200077898       18.1174878964
  H        16.0967943894        3.2853115390       22.5202372067
  H        16.0092830033        2.4341807101       21.1477177449
  C        17.2951891789        1.4569479794       22.5430296209
  H        10.4324340986        9.2763107320       13.6725501534
  C        11.1813065869        7.8332736403       12.3742095076
  H         3.7656653260       -1.0155118236       38.3624525743
  H         4.1177672556       -2.5239114060       37.4893817899
  C         5.8068159516       -1.4514778811       37.9644215048
  H         0.6703568950        0.0983614663       18.3602500228
  H         1.8073889816       -1.0107483259       19.0999066152
  C         1.5075935565       -1.4252119191       16.9362912384
  H        17.1579626836        0.4777167401       22.0012889640
  H        18.2073387962        1.9094246002       22.0862330716
  C        17.4433710512        1.1842702957       24.0668271445
  S        11.5502459163        6.2031297764       11.8905496887
  C        11.4447496602        8.8858279723       11.3630663962
  H         6.2175389506       -2.1846284404       37.2033811069
  H         6.2358775154       -0.4817706222       37.9322187213
  H         5.9236286436       -1.8519253342       38.9612547508
  H         0.5733570761       -1.9156611000       16.8806059099
  H         2.2583353786       -2.1509976988       16.9215354392
  H         1.4524256689       -0.8211635894       16.0239705410
  H        16.6599537240        0.5322449053       24.5489532462
  H        17.1772273135        2.0852595640       24.6044551806
  H        18.4382448174        0.8453265941       24.3673747609
  C        12.2382043153        7.0049124268       10.4332960695
  N        12.1530832310        8.3429642309       10.3622393166
  O        11.1381704532       10.0695072025       11.5178046406
  S        13.0043519126        6.1278277906        9.1283518856
  C        12.3913577204        9.1177417662        9.1549790964
  H        12.4374090133       10.1118672481        9.5188272700
  H        13.3547533744        8.9103759903        8.5954441298
  C        11.1202068561        9.0799217877        8.1374503890
  H        11.2340958212        9.9234616247        7.3853867557
  H        10.9763930155        8.1722207233        7.5202258322
  H        10.1513711485        9.2108929654        8.6114599454
  H         2.5444184263        3.6578459961       12.1079905166
  C         2.8020453497        2.5549219027       12.1763946397
  H         2.1660882671        2.1393375121       12.9045415854
  C         2.3969240865        1.9821913488       10.7864450086
  C         4.2114295367        2.2580336751       12.5164986190
  C         3.3048783561        2.3356174462        9.7055876246
  H         1.3831787517        2.4036901130       10.4582419523
  H         2.1552710534        0.9098911057       10.8880376698
  H         4.4433029006        1.1337471639       12.4836427859
  H         4.4921681588        2.6371315728       13.5201066658
  H         4.9241962620        2.7329277139       11.8683840514
  C         4.2582143347        1.1907486740        9.3036977019
  H         2.7702522361        2.6038547836        8.7569093871
  H         3.8846834405        3.2699651713        9.9155667774
  C         5.3223163234        1.4777786355        8.1359788143
  H         3.6611442827        0.3386277519        9.0452742123
  H         4.7706795501        0.8229134970       10.2368607592
  C         6.4150101057        2.3806397308        8.5835726623
  H         4.8966894929        1.8066903354        7.1862603433
  H         5.8323638486        0.5028961960        7.9598124674
  C         7.6197797277        1.6311687069        9.0865494755
  H         6.7036925860        3.0882721227        7.8232440239
  H         5.9722535931        3.0411707889        9.3331218470
  C         8.8080362880        2.4941978059        9.5728059815
  H         7.9969664379        0.9291402135        8.3359643399
  H         7.1008359853        1.0253386896        9.8608374256
  C         8.4751770320        3.8137145852       10.2086473255
  C         9.3422961244        3.2503397190        8.3521259337
  C         9.8717889535        1.6857570384       10.4868582427
  C         8.7310110968        4.9141593189        9.4154886484
  C         7.9051461452        4.2248859162       11.4115686516
  C         9.3319297374        4.6009368351        8.2511762393
  C         9.8890777028        2.6551052694        7.1856377021
  H         9.3407214904        1.3347333095       11.3848395518
  H        10.1603649744        0.7704455747        9.9510956997
  C        11.1367098923        2.5200503131       10.7225473052
  S         8.2769805808        6.4336133226       10.0898337294
  C         7.7100687898        5.5985355719       11.5012799570
  H         7.6554179138        3.4272075859       12.1306476426
  C         9.7917661089        5.2858463454        7.1459809991
  H         9.8501885574        1.5699889883        7.2572185302
  C        10.3420203688        3.3505494870        6.0439123139
  H        10.9994164958        3.5641096036       10.7902934582
  H        11.6154819438        2.5377055119        9.7189013036
  C        11.9864940198        2.0278759734       11.9595302982
  C         7.2917533026        6.2564352089       12.7728247296
  C        10.3338149858        4.7241874255        6.0047545267
  H         9.4742102492        6.3312257793        7.0725838213
  C        10.7675960572        2.9998207136        4.7708463053
  H        12.8134973819        2.6555365249       12.0826833594
  H        12.5678579940        1.1073487050       11.6642661801
  C        11.2911471021        1.9371160213       13.2328559364
  C         7.2516343200        7.6490225576       12.9978393961
  C         6.9499225993        5.4545597517       14.0224222209
  C        10.6083056351        5.4907971072        4.7338224138
  C        10.8769605875        4.1518000723        3.9772879196
  S        11.0902547745        1.5258469220        3.9510832302
  H        10.7434926419        2.9199609117       13.2563851668
  H        10.5799827573        1.1778640599       13.4065787913
  C        12.3205536836        1.7086126783       14.2824938649
  N         7.4822438805        8.6054338675       11.9916113474
  C         7.0011990862        8.2645163655       14.2484854283
  C         6.6464047176        6.0474078290       15.2086697912
  H         6.8656491193        4.4574501488       13.8916900622
  C        11.8673182539        6.4206001591        4.8740375585
  C         9.3851236393        6.1759868934        4.1359518508
  C        11.1482813153        3.7739351859        2.6513105108
  C        11.2858432158        2.4356673268        2.4836270879
  H        13.0606328722        2.5038439980       14.2037875827
  H        12.8675623457        0.7695061538       14.1266893873
  C        11.7878838438        2.1462958845       15.6815203773
  S         7.6814749768       10.0820851164       12.7596204451
  N         7.1524506507        9.6313665402       14.2482748097
  C         6.7722883979        7.5540315586       15.4345070527
  H         6.2549267091        5.4524763853       15.9717701621
  H        11.6780387301        7.3292049059        5.4410001826
  H        12.0962909575        6.7873588487        3.8547788811
  C        13.0798520876        5.6443123739        5.2620879055
  H         8.9646276370        6.8859357025        4.8919969340
  H         9.7319407229        6.8794169878        3.3095308077
  C         8.2100069959        5.2348010013        3.7651603014
  H        11.1198662072        4.5417817186        1.8552667992
  C        11.6605074509        1.7691781549        1.2134934257
  H        11.3641417747        3.1188214385       15.6511945254
  H        11.1244373717        1.4087141490       16.0692819183
  C        12.9847308009        2.1393430763       16.6697267778
  C         6.5096482401        8.2954826930       16.5723821328
  H        12.9169218529        5.0591775079        6.1877048854
  H        13.3206056370        4.8700308409        4.5432160490
  C        14.3511955443        6.3903085656        5.5414821568
  H         7.9177544985        4.6148140665        4.6398041656
  H         8.4848862195        4.5336268966        3.0368108686
  C         6.9768548925        5.9661846360        3.2813021788
  C        11.8034201381        0.3395814846        1.0132198273
  C        12.0572388197        2.6987342397        0.0712328241
  H        13.8395809353        2.4994957783       16.1853532490
  H        13.2359335155        1.1258174829       16.7483479271
  C        12.5987409800        2.6263972097       18.0554198728
  H         6.8973633457        9.2464406181       16.5265121490
  C         6.2081229611        7.9839713802       17.8845289981
  H        14.1955916056        6.9157094197        6.4640953623
  H        14.4926503814        7.1668581717        4.8269534063
  C        15.6043011340        5.4780789417        5.7186460619
  H         6.1037862964        5.7492429785        3.8425647244
  H         7.1759409795        6.9895203568        3.5087337597
  C         6.6384457392        5.7060886274        1.7925903446
  N        11.3488868016       -0.6944868950        1.8707453582
  C        12.1024383543       -0.1851496343       -0.2521459735
  C        12.4524154444        2.1198263429       -1.1558872110
  H        11.9915716972        3.7592570666        0.1656977904
  H        13.3956671382        2.5967373320       18.7202290092
  H        11.6782795855        2.1503430859       18.4548499714
  H        12.3748534944        3.6889848726       18.0300071365
  S         5.9921332595        6.4545925278       18.6653314227
  C         6.2049466177        9.1502716657       18.8268030139
  H        15.3773456881        4.5514136804        6.2652930880
  H        15.9365022925        5.1215678399        4.7237948241
  C        16.7088959977        6.1232240411        6.4407908368
  H         6.9296168560        4.7026003144        1.4157696029
  H         7.0412821592        6.4516130696        1.1459723582
  C         5.2258814540        5.8593025696        1.3856213814
  S        11.7378353104       -2.1303392485        1.1907326226
  N        12.1290443402       -1.5744276582       -0.2981034421
  C        12.3161594768        0.6226252268       -1.4058826477
  H        12.5437287078        2.7698165003       -1.9599920378
  C         5.7655154330        7.3817420412       20.1516004123
  N         5.9422768149        8.7346293310       20.0502485047
  O         6.3665981048       10.3198422516       18.6243030160
  H        17.3527769256        6.6838410095        5.7622086541
  H        16.2705907308        6.8068530295        7.0834159095
  C        17.7152656795        5.1294028939        7.0753336938
  H         5.2425880191        5.6792642225        0.2915945475
  H         4.4996937488        5.1211321805        1.8349513025
  C         4.6297204879        7.2421390010        1.6430400650
  C        12.6525418304       -0.0811861214       -2.6707974551
  S         5.4240864037        6.6995279095       21.7778568632
  C         5.9095346450        9.6486442743       21.2151751966
  H        17.1801991367        4.7666886942        7.9734422960
  H        18.0612188499        4.4065955525        6.3716280683
  C        18.9466936661        5.8689899321        7.6072157732
  H         5.2741378667        7.7155515893        2.3779015974
  H         3.6467101513        7.1430914979        2.1527032057
  C         4.6502518896        8.0692897392        0.3594935314
  H        12.6360763151       -1.1692630823       -2.5490105390
  C        13.1812487475        0.3034752312       -3.9165023268
  H         5.1680653892        9.2720236975       21.9175933512
  H         5.5246293679       10.6511424280       20.9643224264
  C         7.3089917250        9.8353605863       21.7289987238
  H        19.1918721056        5.2842004495        8.4454436570
  H        18.6730163123        6.7921390914        8.0437255278
  C        20.0633569239        5.9206532986        6.6161304549
  H         5.6205545757        8.3577544037        0.1072032789
  H         4.4710535922        7.3196643287       -0.4932704109
  C         3.7326029292        9.2715535297        0.4928471335
  S        13.7651220106        1.8311008053       -4.2694163398
  C        13.3562904132       -0.7193256222       -4.9628244742
  H         8.0743939097       10.1445569312       20.9759029498
  H         7.7880547940        8.8902678284       22.0986327422
  H         7.3850888504       10.5388566595       22.4739199425
  H        19.7767409471        6.3294458866        5.6078151372
  H        20.9227445086        6.4633917236        6.9627428071
  H        20.4254033602        4.9777491330        6.3143089255
  H         4.2721502191       10.1289108274        0.7476683202
  H         3.2742424720        9.5940469437       -0.4744415957
  H         2.9048353212        9.0736997372        1.2205818820
  C        14.0490866368        1.2021272327       -5.9370625796
  N        13.9116450949       -0.1108953183       -6.0790626962
  O        12.9281469439       -1.8778784289       -4.9688891975
  S        15.0226178874        2.0919976087       -7.0900286610
  C        14.1043845099       -0.8403243914       -7.3598196335
  H        14.3098031861       -1.8557468898       -7.0242998386
  H        15.0495939764       -0.4559606237       -7.8040918184
  C        12.7644247042       -0.6561012087       -8.2604993056
  H        12.6314148596       -1.5438308635       -8.8850046138
  H        12.9999672010        0.2814985261       -8.8209122068
  H        11.8469747826       -0.5319626569       -7.6608870414
