352
 i =    15200, time =     7600.000, E =       114.2959768563
  H         9.9399608832        5.2150580313       32.7580938097
  C        10.7752196756        5.9090577987       32.8648653445
  H        10.6336045456        6.6333542380       33.6546365671
  C        10.7838305292        6.5337269361       31.4731934121
  C        11.9483102860        5.2150485297       33.3441792472
  C        10.7269498313        5.3816267135       30.4407340896
  H         9.7431404753        7.0212741252       31.4273097620
  H        11.5223210748        7.3511510349       31.2667961475
  H        12.9276346372        5.7039455083       33.1656320225
  H        11.7964024254        5.1071209177       34.4530197543
  H        12.0021024150        4.2054862323       32.9126216768
  C         9.9033027758        5.6366995321       29.1589190688
  H        10.4314886982        4.3551090977       30.6390550547
  H        11.7239445354        5.2017552719       30.1043283375
  C        10.7351893734        5.5415616599       27.8807013363
  H         9.1481714248        4.9364232482       29.0623262127
  H         9.3444424837        6.5796825685       29.2864499885
  C         9.9516134272        5.0464575142       26.6405389207
  H        11.5040049492        4.7761941948       28.0452579092
  H        11.3328464949        6.4096849828       27.7236331931
  C         8.7599527859        5.8639236844       26.2491142711
  H        10.7182577939        4.9731133886       25.8866747872
  H         9.6284639266        3.9883642021       26.8633286207
  C         7.5555689839        5.2364721892       25.5679305308
  H         8.3626776120        6.3900470613       27.0386394745
  H         9.1248335103        6.5331514693       25.5113869758
  C         7.1806454884        3.8800951612       26.1554186211
  C         7.8882144961        4.5712611104       24.2002272656
  C         6.2453885101        6.0717062982       25.4596812313
  C         7.2514956783        2.8342475210       25.2795353328
  C         6.6618485365        3.4394251748       27.4164562348
  C         7.8730953687        3.2083303640       24.1379094107
  C         8.2314032458        5.2090618828       23.0342782176
  H         6.5817939860        6.8451329495       24.7793157439
  H         6.0341730057        6.4945223755       26.4021913241
  C         4.9737668889        5.3821630281       24.9242981782
  S         6.7034346388        1.2940726737       25.9162254104
  C         6.3054735620        2.1536646001       27.3949293714
  H         6.6063056287        4.1658338645       28.2328436618
  C         8.2374456935        2.5764923522       22.9817538105
  H         8.1834568559        6.2724057969       23.0405903512
  C         8.6466691208        4.5556382325       21.9178984208
  H         5.3383615802        4.8920752815       23.9503622549
  H         4.7173733613        4.5488508326       25.5274554561
  C         3.7174796730        6.3135043981       24.6306515021
  C         5.8750659433        1.3696288002       28.6334597779
  C         8.7125709676        3.2172832532       21.8398917116
  H         8.1460590709        1.5276094011       23.0271619844
  C         9.0267712525        4.9092542189       20.6453883556
  H         2.9784920809        5.7803896879       23.9765379218
  H         3.8918886231        7.1800854442       24.0611144367
  C         3.1701651918        6.8477761776       25.8462579716
  C         6.0172877792       -0.0307948000       28.8084614364
  C         5.4791994855        2.1751186121       29.7946557617
  C         8.9672488266        2.4500776244       20.6010204387
  C         9.2977687644        3.7818883123       19.8740162128
  S         9.2171911363        6.4412291142       19.8071714648
  H         2.3509755015        7.4983391489       25.4524726880
  H         3.9388325887        7.4067185921       26.4098068330
  C         2.5906340788        5.7446009405       26.6817744583
  N         6.4675973073       -0.9259723526       27.8308073969
  C         5.6630461380       -0.6767210627       29.9946912849
  C         5.2368932393        1.5756579005       31.0185800003
  H         5.3323534503        3.2421452962       29.8078580553
  C         7.7730438737        1.7152393212       19.9863941417
  C        10.2152919111        1.4688114163       20.6858884021
  C         9.5787759002        4.1808243088       18.5943453021
  C         9.7330755216        5.5388780283       18.4647968629
  H         2.0943806863        5.1030618685       26.1278241265
  H         3.3768558540        5.2854579695       27.2364170604
  C         1.6607712137        6.2734576573       27.7904367996
  S         6.3589496232       -2.4451812662       28.3868109449
  N         5.8664871053       -2.0633890418       29.9219813773
  C         5.3303966721        0.0878166888       31.1464211422
  H         4.9876917745        2.1623715018       31.8681816343
  H         7.5147274596        0.8301051503       20.5460825686
  H         8.0101169270        1.4394371038       18.9468487065
  C         6.4604110945        2.4155535241       19.9746401597
  H        10.3335353496        1.0955990746       19.6283558586
  H         9.9405609937        0.6482083904       21.3303042063
  C        11.5387026930        2.1311254850       21.1096011475
  H         9.7464143444        3.4349572255       17.7803496816
  C        10.0027966994        6.2195870108       17.1369210292
  H         0.7578228854        6.6542799506       27.3754525277
  H         2.1316515944        7.1971802703       28.1853956852
  C         1.5736021670        5.2403578597       28.7958624841
  C         5.0359656806       -0.7089797227       32.3893238885
  H         6.5665207404        3.3859491793       19.5642304177
  H         6.0137813400        2.5668696469       20.9225664872
  C         5.3888576707        1.5152820742       19.2526761335
  H        11.4958768594        2.6068184888       22.1122477754
  H        11.7688741278        2.9298798692       20.3732191480
  C        12.6735440192        1.1339403192       21.2017942873
  C        10.1440933190        7.6630477196       17.0063686850
  C        10.3372599155        5.3802005644       15.9904937511
  H         1.0252931982        4.3632969653       28.4040215806
  H         2.5632766677        4.8250824635       29.0413959990
  C         0.7859808113        5.7137367648       30.0191114511
  H         5.3363341206       -1.7281352741       32.4157779036
  C         4.6163543462       -0.2856893386       33.6170236032
  H         5.0272487160        0.6534159654       19.8691377636
  H         5.8802225054        1.2186191305       18.2953821606
  C         4.1540108518        2.4216117818       18.8849792060
  H        12.5077425865        0.4299952383       22.1121625383
  H        12.6573366589        0.4453031209       20.4028037110
  C        13.9172655005        1.9345775846       21.3771689325
  N         9.9160554497        8.6660553679       17.9379285730
  C        10.3460280197        8.2482848563       15.7582663646
  C        10.6377421646        5.9926886696       14.7234597573
  H        10.2958836869        4.2761207291       16.1989718831
  H         0.0689949477        4.8548176132       30.2093839661
  H         1.4653688116        6.0317266309       30.8663152245
  H         0.2890184225        6.6226265121       29.8069469232
  S         4.3365107507        1.2986777307       34.1403661781
  C         4.5044029450       -1.3346688383       34.7092467265
  H         4.0773700970        3.2950865495       19.5509403031
  H         4.4021935478        2.8735033956       17.8829870294
  C         2.8027822100        1.7007688769       18.8021688196
  H        13.7199854047        2.8808215106       20.9489212964
  H        14.7882375247        1.5700435435       20.8221961551
  C        14.2813970249        2.2874612403       22.8623692155
  S        10.1417193010       10.1014360244       17.2584355067
  N        10.3816907123        9.5571645602       15.7319143090
  C        10.5776459173        7.5262726931       14.5927976327
  H        10.9081720491        5.2802066165       13.9267393786
  C         3.9855492502        0.6227481535       35.7767010006
  N         4.0972179239       -0.7196731534       35.8796501183
  O         4.6756658080       -2.5303810100       34.5506413781
  H         2.0158333680        2.4532213346       18.8891845079
  H         2.7584918454        1.0841700253       19.6603436003
  C         2.7401098301        0.8318334356       17.5375217240
  H        13.4569803395        2.8649794966       23.2445320162
  H        14.3384582591        1.2529380761       23.3842878396
  C        15.4863290514        3.2729238044       23.0164686628
  C        10.9137559139        8.1784751875       13.3805509523
  S         3.8263196869        1.5334610835       37.2992980786
  C         3.9726366109       -1.4330235622       37.1523590417
  H         2.0541450396        1.2542273076       16.9306590018
  H         3.6944470513        0.8382461615       17.0585145852
  C         2.2906548908       -0.5986607059       17.8976324830
  H        15.1022255134        3.8500963467       23.8800250694
  H        15.5403726463        3.9805174552       22.1797644375
  C        16.6909233078        2.5940683821       23.3796889278
  H        10.7824529374        9.3214222370       13.3669026233
  C        11.4323939463        7.6699789295       12.1881665857
  H         3.0801422836       -1.0909542036       37.7139384387
  H         3.6111482243       -2.4266037228       37.0229259123
  C         5.2779321175       -1.5880767312       37.8812084355
  H         1.4921340421       -0.5398755510       18.7027367638
  H         3.1374460774       -1.0837756020       18.3818440938
  C         1.9587963924       -1.5583827472       16.8229926802
  H        16.9792271838        2.9937273977       24.3666040725
  H        16.4714937530        1.5231685622       23.5964048508
  C        17.7405905812        2.9376549134       22.3242692341
  S        11.9780795264        6.0836179827       11.7355501580
  C        11.7881567673        8.6454792375       11.1364284776
  H         5.5804959323       -2.5714438032       38.1891198116
  H         6.1492288326       -1.0871350236       37.4342795971
  H         5.0327573995       -1.0440271393       38.8118943647
  H         1.8231386603       -2.4319446040       17.4391521248
  H         2.8150437160       -1.6691912149       16.1424970277
  H         1.1353409334       -1.1413563941       16.2577185778
  H        17.9441078033        3.9632872610       22.2064295391
  H        17.4132913621        2.4706610863       21.3990525185
  H        18.6344387083        2.5073620797       22.6602103963
  C        12.4342762476        6.7482846392       10.1959768074
  N        12.4828666009        8.0618333994       10.1645434939
  O        11.2895922694        9.8320771333       11.0355475483
  S        12.9156941798        5.7441252230        8.8409694678
  C        12.6149420534        8.7831161416        8.9450490234
  H        12.8552044090        9.8151940953        9.1958649787
  H        13.4843862818        8.4335545854        8.4192352106
  C        11.2535091432        8.7785679508        8.1431864266
  H        11.4342940401        9.0206357353        7.0814099917
  H        10.6909653964        7.8336775330        8.0476806516
  H        10.4415116072        9.3362020593        8.6615590919
  H         4.3204665498        1.7410507761       13.1167993717
  C         3.6892627560        2.6060202440       12.9935342425
  H         4.4138599291        3.3997806262       12.9371911592
  C         2.8067422350        2.6412906309       11.7385029334
  C         2.8874107679        2.8265006428       14.2794364881
  C         3.6490756061        2.7590760773       10.5042619589
  H         2.1915363934        3.4751124855       11.7857646893
  H         2.1070901481        1.7625515103       11.7371699440
  H         2.1614837398        2.0336327438       14.2646030321
  H         2.4592600193        3.8498013314       14.1812408779
  H         3.4793442508        2.6667122064       15.1324559216
  C         4.4836651836        1.5165610500       10.0926621724
  H         3.0434370329        3.0236971333        9.7036862476
  H         4.2431074415        3.6427219244       10.6763763527
  C         5.1729082981        1.6683512877        8.7497809051
  H         3.7589204227        0.7254510018       10.0396323954
  H         5.2372783575        1.1957071364       10.7754282719
  C         6.4309346866        2.5726316423        8.7407113995
  H         4.4406678963        2.0840755476        8.0300230894
  H         5.4657954793        0.7002185675        8.4547453405
  C         7.6918411743        1.7624370021        9.1112266437
  H         6.4720077399        3.0180064546        7.6879244289
  H         6.3708954684        3.3879868125        9.3883783380
  C         8.9405946140        2.6271715746        9.4160329947
  H         7.9357899492        0.9297763207        8.4374966934
  H         7.3633580119        1.4312103284       10.0328449710
  C         8.5783851903        3.9465309926       10.1074822316
  C         9.4075630332        3.3775780113        8.1686635430
  C        10.1583426077        1.8825684942        9.9139252870
  C         8.8169151480        5.0739456678        9.3329092968
  C         8.0393813581        4.3461583175       11.3230334733
  C         9.3359073258        4.7068366945        8.0990222644
  C         9.8869235192        2.8089669541        6.9968733925
  H         9.9383787718        1.3140655084       10.8147077510
  H        10.3812972759        1.0645566231        9.2270535972
  C        11.4666404551        2.7231072889       10.2456130772
  S         8.4324735991        6.6169378993       10.1001618444
  C         7.9527627314        5.7267950454       11.4369543712
  H         7.8280396433        3.6225822007       12.0547815962
  C         9.6512268144        5.3432541750        6.9303534570
  H        10.0353235087        1.7699071023        7.0384406864
  C        10.3327038256        3.4284216807        5.8735866003
  H        11.2476622352        3.6479075049       10.8010604264
  H        11.8644555674        2.9924910333        9.2697399255
  C        12.4338493634        2.0334788095       11.1972681231
  C         7.4615570793        6.4484675250       12.6489300143
  C        10.1607561919        4.7670689541        5.7592612279
  H         9.5380992209        6.4428580760        6.9808133898
  C        10.7352684402        3.0565628458        4.5774155231
  H        13.2765406266        2.6092546835       11.2853364141
  H        12.7680673502        1.0971426766       10.8765569497
  C        11.8067747016        1.9257107337       12.5981991566
  C         7.6259084411        7.7967363289       12.9794828388
  C         7.0206684276        5.6066404953       13.7172962998
  C        10.5410893055        5.4604668775        4.4981510318
  C        10.8123570136        4.1423945939        3.7654637084
  S        11.0367959255        1.5958168692        3.8475972558
  H        10.7657342541        2.2069382172       12.6235140837
  H        11.8465000660        0.9016654418       12.7135327741
  C        12.5165244934        2.5801530950       13.7735101448
  N         7.9825214763        8.7974981963       12.0620691703
  C         7.3424078293        8.3440443485       14.2286122551
  C         6.8287810536        6.1305613687       14.9763424981
  H         6.6655726086        4.6233520299       13.5935945445
  C        11.8152487171        6.3434487722        4.6357322359
  C         9.3623313613        6.2867635354        3.7571390456
  C        11.0275539563        3.7967289835        2.4230121327
  C        11.1680690875        2.4435161939        2.3276389343
  H        11.8480166190        3.2962744841       14.2127445899
  H        13.4463818353        3.1174312307       13.4364215137
  C        12.9272534781        1.5112690802       14.8052355684
  S         8.0014687185       10.2342409549       12.8434161513
  N         7.5390064465        9.6750603962       14.3192520125
  C         6.9668113885        7.5570122095       15.3231387712
  H         6.5141398345        5.5434188810       15.7874474562
  H        11.6663570469        7.0056611059        5.4583601301
  H        11.9692925899        7.0142144045        3.8082851467
  C        13.0769378188        5.5446676951        5.0172057968
  H         9.0823801217        6.9841188241        4.5327174345
  H         9.8410738095        6.8463744384        3.0080728088
  C         8.1155763127        5.4880416340        3.2792016790
  H        11.0557877217        4.6412010105        1.7677218322
  C        11.6667676048        1.7348768930        1.0733726996
  H        12.0912110558        0.8740971840       15.1669840872
  H        13.5775202679        0.8400932411       14.3184650196
  C        13.5087884960        2.0330632371       16.0873770492
  C         6.7957185050        8.2003547240       16.5802595147
  H        12.9184294512        4.9594287291        5.9357645389
  H        13.2798977004        4.8705658586        4.2236641361
  C        14.2571114847        6.4691885392        5.4085098979
  H         7.5534110200        5.0819515016        4.0990086102
  H         8.5381367492        4.7945289528        2.5399788094
  C         7.1393362461        6.3722689355        2.4079315608
  C        11.8128320612        0.3536223959        0.8787609042
  C        11.8191835519        2.5222447655       -0.2274673409
  H        13.8209445115        3.0384687586       15.9663574561
  H        14.4695452574        1.4815484493       16.3272891448
  C        12.5348049266        1.9491329357       17.2881806433
  H         6.7345584861        9.2404205572       16.5093593017
  C         6.4853640369        7.6538969568       17.8232198722
  H        14.0560277407        7.2697380062        6.2244665883
  H        14.2802433143        7.0591341288        4.4527497800
  C        15.5833683009        5.7668242569        5.4863113594
  H         6.7628373106        7.2263448146        2.9418036139
  H         7.7271968191        6.7878183214        1.5783538334
  C         5.9896654413        5.5306840303        1.8456336346
  N        11.4874994022       -0.5655737145        1.8377887844
  C        12.2072813523       -0.2503518874       -0.2917930405
  C        12.1245372654        1.9513561853       -1.3928250143
  H        11.6287502173        3.5796224477       -0.2432555364
  H        12.7852887041        2.7449332053       17.9476562765
  H        12.6260819419        1.0157867811       17.8612740285
  H        11.5058488792        2.0413239886       16.9986325044
  S         6.3192274857        6.0375754985       18.2634160502
  C         6.4151041446        8.6215587149       18.9345617425
  H        15.3726493997        4.7557865414        5.1148175784
  H        16.2466090671        6.3180569965        4.7658712072
  C        16.2662529662        5.7117987804        6.8389473896
  H         5.3696823842        5.1166658082        2.6496059942
  H         6.2578569929        4.6678781936        1.2128391594
  C         5.1489782213        6.5298325605        0.9533711751
  S        11.6645262721       -2.0537240748        1.2390206093
  N        12.1712494926       -1.6452121075       -0.2460881391
  C        12.2993252625        0.4436506023       -1.5090714208
  H        11.9740487848        2.5159101777       -2.2678754484
  C         5.7223087377        6.6709163533       19.7764611645
  N         5.8983290343        7.9954867385       20.0013331980
  O         6.8199578651        9.7381282400       18.7391590567
  H        16.2184029664        6.6571907476        7.2881476893
  H        15.6416367302        5.0398621444        7.4508605003
  C        17.7168130210        5.0883635981        6.6967135514
  H         5.7433555314        6.9959169676        0.1789286085
  H         4.3879687694        5.9571359189        0.4839235518
  C         4.2986063340        7.5405360087        1.7235785896
  C        12.6709738453       -0.3354901390       -2.6277703075
  S         5.3774444080        5.6157404306       21.2495715045
  C         5.7397188286        8.7046881798       21.2479259755
  H        18.0642382000        5.2375390337        7.7323837388
  H        17.5462153745        4.0142574743        6.4516477965
  C        18.6068105484        5.7860685194        5.6424562208
  H         4.7484536930        8.0271737749        2.5724704308
  H         3.5472373820        6.8514123722        2.0968247181
  C         3.6609376139        8.6529246755        0.9402407374
  H        12.5099481822       -1.3395485750       -2.5561111752
  C        13.0206073938        0.0293603795       -3.9059563800
  H         4.9230234808        8.2722220844       21.7801055029
  H         5.4004868303        9.7391577249       20.9556628772
  C         6.9503717166        8.6827730423       22.1267959268
  H        18.1670533977        6.7916178752        5.4687914741
  H        18.4584520920        5.3239995852        4.6668781943
  C        20.0491616414        5.8782779194        6.1715863199
  H         3.4485283915        8.2226100886       -0.0895906654
  H         2.6248325115        8.8393666887        1.2934883810
  C         4.5269931024        9.8550430367        0.6729660127
  S        13.5689638639        1.6224275639       -4.2384540590
  C        13.1325259965       -0.9469074238       -4.9310674489
  H         7.3324680757        9.6373009815       22.3867001330
  H         7.8016654506        8.2144499385       21.6154416562
  H         6.8031835826        8.2068862514       23.1008539455
  H        20.5934338521        6.2776312810        5.3851256363
  H        19.9485609469        6.5617904172        7.0418296335
  H        20.5425637782        4.8907437611        6.4382267332
  H         5.5330965706        9.5976791468        1.0774552524
  H         4.6901793597       10.2132646723       -0.3399049758
  H         4.3330724654       10.6886561040        1.2935510549
  C        13.9727918016        0.8919618452       -5.8371241417
  N        13.7424168828       -0.3783611310       -5.9708078859
  O        12.7354742395       -2.1164433194       -4.8211646342
  S        14.7667940715        1.7767534599       -7.1245862629
  C        14.2004793672       -1.1256468732       -7.1226234706
  H        14.5297140865       -2.1100441612       -6.8438373998
  H        14.9476888002       -0.6053842404       -7.6712537990
  C        12.9550233113       -1.2814602091       -8.0118934159
  H        12.9011189835       -0.3876756405       -8.7479024401
  H        12.0506606300       -1.2822364166       -7.4334411862
  H        12.8959573667       -2.1551787330       -8.7274575144
