352
 i =     1100, time =      550.000, E =       220.9679465636
  H        12.5638595452        6.1517264332       32.3889262732
  C        11.9920938479        5.3372682610       32.4352444394
  H        12.5430847009        4.6434709823       32.0002279207
  C        10.7073702904        5.5610234676       31.4267527761
  C        11.5779621578        4.9360822683       33.7816737752
  C        11.1305670699        5.3480620152       29.9384970829
  H        10.0396931853        4.7609952171       31.5636562452
  H        10.4274977299        6.5204303578       31.6761730124
  H        11.7742402641        3.7908717103       34.0167616852
  H        11.9497143653        5.4900016344       34.6892649718
  H        10.4417078705        5.0167865493       34.0297411669
  C         9.9856946607        5.6876833220       28.9724561378
  H        11.6359968429        4.3653778947       29.7272242689
  H        11.9769549353        6.0665181811       29.7267620266
  C        10.5268741368        5.7666690988       27.4978514679
  H         9.3238059633        4.9386328511       29.0743277835
  H         9.4678071056        6.5821298064       29.2082036820
  C         9.6057865366        5.0238741467       26.6005891724
  H        11.5414916311        5.3204217144       27.4871585115
  H        10.5624664077        6.8012976652       27.1494737087
  C         8.3553192446        5.8906515242       26.2850782424
  H        10.0553221471        4.9337346184       25.6199349224
  H         9.3628219185        4.1181183075       26.8486302273
  C         7.2358353515        5.1468960853       25.5330823074
  H         8.0494960168        6.2905430531       27.2225543731
  H         8.6346287957        6.7234608335       25.6891132967
  C         6.8252561441        3.7803021508       26.2482107804
  C         7.7232846865        4.3901162390       24.3529476630
  C         5.9538057221        6.1110696331       25.2183625009
  C         7.0615245204        2.7364628939       25.3970406595
  C         6.1730969715        3.4461620796       27.4383988592
  C         7.6539241709        3.0225186703       24.2118066171
  C         8.0770977780        5.0552221256       23.1021239352
  H         6.3846092135        6.8874288958       24.4794086273
  H         5.7434240448        6.5930417739       26.1971076114
  C         4.6910811038        5.4585087206       24.6770648866
  S         6.5683961276        1.2646065675       26.1200155469
  C         6.0533270806        2.1176813306       27.5780393136
  H         5.9378793517        4.1447140869       28.2493814390
  C         8.1313099494        2.3318383435       23.0680416965
  H         8.0100465590        6.0459888518       23.1449753270
  C         8.4909677600        4.3653294041       21.9566662676
  H         4.7368533944        5.1447954310       23.5438350174
  H         4.2940332490        4.5582810288       25.2701051955
  C         3.4049127770        6.3461232776       24.7714123636
  C         5.6245406783        1.4115209564       28.8231047520
  C         8.5712306097        3.0080097512       21.8909444140
  H         8.1202839271        1.3487243302       22.9861414257
  C         8.8854199854        4.7724625419       20.7116795222
  H         2.7326333214        5.8989086534       23.9975808488
  H         3.4721151682        7.4720666442       24.5207578374
  C         2.7495406430        6.3390812378       26.1800886469
  C         5.6688475241        0.0437942190       29.1029122996
  C         5.4068285549        2.3555900124       29.9604180567
  C         8.9909038227        2.3413346583       20.6127229836
  C         9.2251725336        3.7148051832       19.8795546425
  S         9.2103960884        6.2558803921       19.9090194257
  H         1.8909720827        7.1426316792       26.1767707693
  H         3.5833413908        6.6691425794       26.9331438142
  C         1.9047289391        5.0624080498       26.4228959740
  N         5.8743392822       -0.9996371703       28.1834440466
  C         5.4480939073       -0.4721324818       30.3457861169
  C         5.1289506707        1.8025875879       31.2405074874
  H         5.2784348305        3.4331861464       29.7668189713
  C         7.9095470907        1.4989566158       19.8158857287
  C        10.3304624650        1.5928073908       20.8703713525
  C         9.6597280983        4.1543606340       18.6225595808
  C         9.7460948199        5.4616014783       18.4281538147
  H         1.1742514926        4.8759530914       25.6476477034
  H         2.6251512158        4.2541186397       26.4025921660
  C         1.0933393226        5.0210218007       27.8189271945
  S         5.9626968344       -2.4644425456       28.8429291690
  N         5.5794069864       -1.8975373288       30.3196938867
  C         5.0804683645        0.2813888044       31.4283557139
  H         5.0081535518        2.5221525086       31.9729494321
  H         7.5011536162        0.7238370917       20.4590204512
  H         8.6648175625        0.9332049928       19.0988595989
  C         6.7050374403        2.4051970850       19.3159183861
  H        10.6112954926        1.0903620724       19.9151586015
  H        10.2779530188        0.8374377684       21.5289551245
  C        11.5863030032        2.4230363986       21.1320189467
  H         9.9989821897        3.5275699908       17.7506582603
  C        10.2001479687        6.3326122935       17.2582460815
  H         0.5929033335        4.0153302375       28.0074581322
  H         0.0646995951        5.5695040116       27.6358442574
  C         1.7575373518        5.5949343320       29.0334173854
  C         4.7994192326       -0.3445647209       32.6818657849
  H         6.9824390931        3.1667532003       18.5718222930
  H         6.2872362509        3.0488560605       20.0971145661
  C         5.6310905687        1.5074520572       18.6504288428
  H        11.1164928587        3.2822977029       21.6684274148
  H        11.8570837676        2.9249446059       20.1843133857
  C        12.6949929364        1.6001108219       21.7088565309
  C        10.2947750612        7.7079931194       17.0879039657
  C        10.3788929995        5.6208255277       16.0176059874
  H         2.6613881465        5.0767415730       29.3987214953
  H         1.9270777708        6.6104609650       29.0138314674
  C         0.9032029063        5.4757846297       30.3507167149
  H         5.1759165042       -1.4153458111       32.7225174114
  C         4.4456157584        0.0501425358       33.9180150321
  H         5.0135293955        1.1153043935       19.3100383514
  H         6.0924737158        0.7537477721       18.1322513878
  C         4.6717966706        2.3663943616       17.7840029584
  H        12.2900141382        1.0075175232       22.5431158663
  H        13.2397080393        0.8882135336       21.0156159284
  C        13.8828986836        2.4759686722       22.3535850159
  N         9.9947821578        8.6445279594       18.1351080776
  C        10.6199870418        8.3231399464       15.8778502940
  C        10.6234212561        6.2267789842       14.7623515139
  H        10.3797743738        4.5615972080       16.1060036213
  H         1.5038584681        5.5771933450       31.2593597614
  H         0.1888330993        6.2997769328       30.4001981353
  H         0.4166730460        4.5359056526       30.3900362414
  S         3.9429880561        1.6416732226       34.3698540889
  C         4.5976568579       -0.9010151915       34.9721181724
  H         4.6933846257        3.4301853391       18.0330347757
  H         5.0267099953        2.2347653961       16.8015921848
  C         3.1005725632        1.9502544411       17.7396226360
  H        13.4956715555        3.0791557189       23.1499615851
  H        14.1207905669        3.1441049437       21.6660795635
  C        15.0441960221        1.5780262755       22.6788812969
  S         9.9812543144       10.1368655185       17.4987463281
  N        10.6699598001        9.7756315133       16.0924324432
  C        10.8512775567        7.7241721917       14.7026232299
  H        10.7079244880        5.4743786848       14.0277619825
  C         4.0717554140        0.9892402379       36.0422848818
  N         4.3097655534       -0.2494561981       36.1843151821
  O         4.9137211904       -2.0979502636       34.7904199137
  H         2.4603711187        2.4004154328       17.0744737702
  H         2.6297197504        1.9737725379       18.7470019342
  C         3.0555674541        0.5170827055       17.2047126341
  H        14.8380124160        0.6072111319       23.2111989602
  H        15.4100039652        1.1751027020       21.7239445413
  C        16.0972209487        2.4212329700       23.3338767046
  C        11.1713776636        8.4400376738       13.5124210840
  S         3.7124984123        2.0665735224       37.4347758553
  C         4.4267004286       -0.9207955109       37.4845561867
  H         2.3048884950        0.4096149430       16.2425193125
  H         4.0366086166       -0.0118183453       16.9857309263
  C         2.3290159913       -0.4435258393       18.1668701883
  H        15.6244330427        2.5419327927       24.2697988724
  H        16.1308496413        3.2276534965       22.6528823410
  C        17.4980449093        1.8365152814       23.5359735656
  H        10.7426314341        9.4397714370       13.6339513884
  C        11.5300784628        8.0474810307       12.2770657152
  H         3.9217694237       -0.3624549180       38.1988673479
  H         3.8637840093       -1.8129272095       37.5552155761
  C         5.8655072534       -1.1497474304       37.9633934628
  H         1.5293405884       -0.0680175404       18.6347714714
  H         2.9705673583       -0.7988555097       18.9529182463
  C         1.8081581592       -1.6260149267       17.3527656141
  H        17.8974761393        2.2384582036       24.3847176833
  H        17.3923761436        0.8606721390       23.6908672016
  C        18.1797115410        2.1129739587       22.3068590517
  S        12.0397454062        6.4474669642       11.8121967811
  C        11.5293909522        9.0962636803       11.2421399615
  H         6.3064175522       -2.1006129922       37.7515238862
  H         6.6827234242       -0.4555151405       37.7159428162
  H         5.8461119940       -1.1696017660       39.1920454935
  H         1.2202011827       -2.3592215822       17.8164165815
  H         2.6842987272       -2.1104793492       16.9442360102
  H         1.1481158740       -1.3883137507       16.4549778332
  H        19.2577910833        1.6359187287       22.2659991640
  H        18.4081595936        3.2299411329       22.2372471635
  H        17.7209834982        1.7228726158       21.3684935417
  C        12.2901926070        7.2215395264       10.1982558086
  N        12.0461180231        8.5016810430       10.1665349894
  O        11.0047207927       10.2070744166       11.2487983079
  S        12.7422577166        6.3556775543        8.7414622248
  C        12.1427952082        9.2928648341        8.8614907688
  H        12.3462022657       10.3580582097        8.8972068507
  H        12.9811676940        8.8771024842        8.2234517480
  C        10.7475861714        9.1028347125        8.1427495416
  H        10.1540959333       10.0257792226        8.2271939447
  H        10.8431383547        9.0021273501        7.1269357960
  H        10.1383493809        8.2447425244        8.4381388175
  H         4.1894663658        1.7752701423       12.7057407268
  C         3.5179535483        2.6206821681       12.6143852045
  H         4.1249464280        3.4762720333       12.5402302566
  C         2.6740690225        2.5982037171       11.2940769526
  C         2.6936839379        2.7390395531       13.9032448271
  C         3.5853834988        2.8814395577       10.0705594060
  H         1.9330171510        3.2713637581       11.4809055183
  H         2.0474660172        1.7005337712       11.3479925251
  H         2.1344232500        3.6374936262       13.9077045282
  H         3.3319516994        2.6159030975       14.7428832992
  H         2.0760104132        1.9473863078       13.9903602008
  C         4.3506482634        1.7164098904        9.6816754720
  H         2.8673558432        3.0697821909        9.2431563290
  H         4.1994316581        3.7936341002       10.4443354996
  C         5.0929838649        1.9329010547        8.3355187616
  H         3.6465424701        0.8656287647        9.3803491933
  H         5.2870883057        1.5557009601       10.2963965639
  C         6.4133317426        2.6702926370        8.5215509490
  H         4.3707192893        2.5874034423        7.8019008652
  H         5.1765014077        0.9725716942        7.8407540381
  C         7.5647868322        1.9480661013        9.1305716015
  H         6.6958057677        3.3301879962        7.7304645060
  H         5.9005631190        3.6075798627        9.0818772186
  C         8.8247455635        2.8656420314        9.2549161964
  H         7.9974741982        1.0636627919        8.6283127125
  H         7.3283967473        1.7647247668       10.1353167032
  C         8.4878469247        4.2500493591        9.8912199658
  C         9.2415964568        3.5525835926        8.0003110577
  C        10.0170026462        2.1474882628        9.9977138748
  C         8.6206160573        5.3312940377        9.0720063205
  C         8.1395781263        4.7110908713       11.1906435722
  C         9.1483326937        4.8977641623        7.8371883182
  C         9.7538467295        2.8714910894        6.8810340844
  H         9.6273377669        1.8342792479       11.0064449645
  H        10.2394507088        1.2479463470        9.4628090979
  C        11.2008191373        3.1038551181       10.2483797971
  S         8.1672052663        6.8212219160        9.7760025398
  C         7.9811185463        5.9888021813       11.3268537398
  H         8.0290908680        4.0174247572       11.9992022308
  C         9.6656758120        5.5534597156        6.7199019570
  H         9.6607864752        1.8424535418        7.0478306552
  C        10.2079180752        3.4733203372        5.8164560808
  H        10.9295793270        3.9467490913       10.9062239207
  H        11.6165776318        3.4961475228        9.3920980478
  C        12.2903158580        2.2240446486       10.9636140441
  C         7.7132644182        6.7603661413       12.6205790695
  C        10.1919996124        4.8424435047        5.6350509881
  H         9.5507265753        6.5307705964        6.6873362838
  C        10.6769011130        2.9792217423        4.6015260423
  H        13.1100260596        2.7910940810       10.8116134908
  H        12.4788849721        1.3641917872       10.3232950301
  C        11.8252851163        2.0638223058       12.3735936701
  C         7.6601112738        8.1244822317       12.8183866115
  C         7.4211196686        5.8713967827       13.7736134351
  C        10.6644473722        5.4804911384        4.3737859980
  C        10.8997242545        4.0316381453        3.7290212778
  S        10.8884067495        1.4763378899        3.7666037618
  H        11.3172856964        2.7932042172       12.8266487860
  H        11.3113856804        1.1634376673       12.6654787399
  C        13.0924201430        2.1259506363       13.3923321212
  N         7.8658227439        9.0871876278       11.8072275759
  C         7.4145283651        8.6626007178       14.0088689083
  C         7.1192793184        6.4667767127       15.0474540228
  H         7.3904849205        4.7956372477       13.6275310498
  C        11.9884055170        6.2443519891        4.6648282423
  C         9.7291891032        6.3349493397        3.5111046879
  C        11.3587266359        3.6502424429        2.4920746243
  C        11.3718988858        2.3096776130        2.2815610221
  H        13.6023362056        3.0026455112       13.0716760094
  H        13.7514443462        1.2747042040       13.2461026471
  C        12.6082540777        2.1779489877       14.8128030341
  S         7.9460664354       10.5638770841       12.4396297074
  N         7.4675724862       10.0933133238       13.8880615679
  C         7.0924579518        7.9612511932       15.1802546681
  H         7.0209070310        5.7560902275       15.7992282087
  H        11.9264143254        6.9612233608        5.3618103661
  H        12.2959079898        6.6633455225        3.6966404668
  C        13.1907866582        5.3662075518        5.0525374887
  H         9.1809978787        7.1435370460        4.1070938285
  H        10.1262645317        7.0303120082        2.7200597343
  C         8.5651084722        5.5675790391        2.8601609602
  H        11.6459839991        4.3520107554        1.7188167462
  C        11.5437107342        1.6000077399        0.9312573341
  H        12.1561610418        3.1607073150       15.0705672691
  H        11.7085215561        1.5511511063       14.9521088991
  C        13.7072511598        1.8857793260       15.8365039834
  C         6.7448060005        8.6061790619       16.4071429759
  H        12.7648383353        4.6083650011        5.9082222799
  H        13.3185082832        4.4759065682        4.3167286684
  C        14.3446491384        6.1986044502        5.2149732732
  H         8.1502218696        4.7830772622        3.5783959210
  H         8.9896149932        5.0197030525        2.0158734056
  C         7.4134464603        6.4947774741        2.3104070041
  C        11.7084306285        0.2346739654        0.8337226363
  C        11.6871975249        2.4304644815       -0.2812075145
  H        14.5849203443        2.5270333690       15.6890287695
  H        14.0535352124        0.8166293415       15.8490132347
  C        13.1887108241        2.3142754686       17.2219865791
  H         6.8773596382        9.6809023134       16.3118242142
  C         6.3964147472        8.2203745920       17.5906793984
  H        14.1999847963        6.9049486720        5.9835729349
  H        14.5655527304        6.8241293350        4.3221310259
  C        15.6288975939        5.4247156332        5.5485601957
  H         7.0623750026        6.9858009632        3.1288082229
  H         7.8786280398        7.1751527224        1.7368239315
  C         6.5931373153        5.6826273033        1.4954745994
  N        11.5503263358       -0.7853908905        1.8655421725
  C        11.9839168214       -0.3690550188       -0.3430054371
  C        12.0025323681        1.7780740599       -1.5138600554
  H        11.4357769020        3.4914409682       -0.1107687584
  H        14.0805282565        2.5736709911       17.7750446536
  H        12.6539921434        1.5677364960       17.8328315393
  H        12.5504650676        3.1481840272       16.9887205129
  S         6.2485923471        6.5715287554       18.0466519464
  C         6.2527191616        9.1643552072       18.7041301235
  H        15.4110404234        4.8381248435        6.3913055391
  H        15.8436402569        4.7999397219        4.8018800235
  C        16.9094793610        6.2647872238        5.9246661035
  H         6.5359907442        4.5965413815        1.7710591973
  H         6.6261899974        5.7403210829        0.3335832126
  C         5.0116423270        5.8715091877        1.7463484201
  S        11.6398276217       -2.2909278445        1.2196649595
  N        12.0236573061       -1.8363795501       -0.3096207391
  C        12.2415722125        0.3287281914       -1.5162556912
  H        12.1726287979        2.5542993589       -2.2963360782
  C         5.9752189760        7.1632400248       19.7316987341
  N         5.8527084064        8.4107188141       19.7781806243
  O         6.3493597251       10.3976779015       18.5520567937
  H        17.2909183799        6.3715074257        4.8658842980
  H        16.6998200995        7.3228005103        6.3901442484
  C        17.7934950044        5.4081303340        6.6329969655
  H         4.3670984975        5.1397372229        1.4026589084
  H         4.8520656238        5.7248768581        2.7911288016
  C         4.5776770691        7.3470875813        1.3735414482
  C        12.6831600886       -0.3408533104       -2.6840619650
  S         5.5348470373        6.1527794895       21.1223196339
  C         5.8554330798        9.2290752809       21.0000569507
  H        17.4639348600        5.2068750335        7.6685896050
  H        17.7627479662        4.4123372074        6.2050595234
  C        19.1726539175        5.9757286531        6.9565064658
  H         3.7481492260        7.2885394741        0.6229983110
  H         5.4235116288        7.9019639577        0.8921483826
  C         4.0612396069        8.1345571612        2.5643058469
  H        12.1386864712       -1.2957267360       -2.8898942514
  C        13.3081849992        0.0971970833       -3.8494574606
  H         5.2067899755        8.7662352450       21.7017824803
  H         5.4226049008       10.1938207630       20.9802751817
  C         7.2562002219        9.0680820272       21.6236951747
  H        19.5565826392        5.4577524274        7.6789903921
  H        19.2558885846        6.8789603902        7.2974713541
  C        20.0357582971        5.8238139598        5.7172297734
  H         3.2666485607        7.5952530661        3.0125518554
  H         4.8749383148        8.2740476957        3.1744821877
  C         3.3809643061        9.4375004082        2.1365987654
  S        13.9609570230        1.6089555751       -4.1526077403
  C        13.3608560479       -0.9778001161       -4.9128157063
  H         7.9400667234        9.7952854031       21.2513347628
  H         7.7671572535        7.9900520900       21.5580954877
  H         7.0757273444        9.4253058898       22.5830122182
  H        20.9894565507        5.7182492510        6.0428874893
  H        19.6932215434        5.0644527262        5.0860741703
  H        20.0775133413        6.7652946796        5.3081715576
  H         2.8015873541        9.8323240899        2.8997372209
  H         4.0967125277       10.1790999772        1.9102210784
  H         2.7206236860        9.2969121555        1.3247425526
  C        14.4271701531        0.8608721535       -5.7565176030
  N        14.1423781306       -0.4373183284       -5.9425244754
  O        13.0245147327       -2.1268879955       -4.7757297839
  S        15.3166928204        1.8643387167       -6.9603900980
  C        14.2972568251       -1.2529562785       -7.2004802309
  H        14.6151374820       -2.2539913328       -6.9337191187
  H        15.1422112269       -0.8449059267       -7.7449252868
  C        13.1132250815       -1.2411753505       -8.0432668496
  H        12.5962728173       -2.2581503326       -8.1187977845
  H        13.4437212635       -1.0561763532       -9.1512932379
  H        12.1898585546       -0.5711320243       -7.8117787085
