352
 i =   133100, time =    66550.000, E =        99.2190293204
  H         9.1897712609        5.4266515262       32.1299567816
  C        10.1673329032        5.9878406056       32.2326212145
  H         9.8458184080        6.9961836177       32.2932219496
  C        11.1405142459        6.0670187089       30.9543437802
  C        10.9163655609        5.5041689004       33.5306926327
  C        10.5298403210        5.8905702372       29.5357007599
  H        11.7782935689        6.9292387776       30.9744922949
  H        11.8688293958        5.1797105215       31.0489010388
  H        10.7519866123        6.2147580300       34.2913809829
  H        10.4922996944        4.5191399387       33.7277029650
  H        12.0216144468        5.3404355150       33.4662510031
  C        11.5495961220        5.2211969555       28.6252588354
  H        10.3385850666        6.8356302601       29.0432622331
  H         9.6430155262        5.2637079001       29.4795833381
  C        11.0821970746        5.3101958829       27.1630722688
  H        12.4987677185        5.7469159508       28.6054987893
  H        11.6939664101        4.1380693202       28.9967740830
  C         9.6633117341        4.8061162197       26.8374663534
  H        11.7553307874        4.7681015099       26.5572686769
  H        11.1811467278        6.3246189207       26.7953984129
  C         8.6679655830        5.8736004793       26.3361171291
  H         9.7809490716        4.0027926461       26.1397959699
  H         9.2190086314        4.3444402866       27.7340426683
  C         7.5148028587        5.2982094240       25.6187006432
  H         8.3397322386        6.4880788281       27.2190733979
  H         9.1453381036        6.5673703051       25.6883481666
  C         7.0723182246        4.0111205081       26.2960398252
  C         7.9901684129        4.6099421347       24.3450176654
  C         6.2885515443        6.2096711489       25.5315838709
  C         7.3698735129        2.8845127516       25.5382449659
  C         6.4837396433        3.7018562238       27.5077000755
  C         7.8894396697        3.1980605009       24.2889580909
  C         8.3427205930        5.2161918237       23.1929297005
  H         6.4374203914        7.1397563965       25.1622520999
  H         5.9475830063        6.4550126307       26.5710390818
  C         5.0553494463        5.5674303799       24.8097004759
  S         6.8648178959        1.3840564515       26.2935453018
  C         6.2938119126        2.3422644552       27.6590048055
  H         6.3247739399        4.4918417562       28.2055383017
  C         8.2486056885        2.5935284098       23.1074102810
  H         8.3299063999        6.2795516908       23.1736104761
  C         8.7494113459        4.6068417235       22.0467662165
  H         5.2758677008        5.2967585513       23.7981365939
  H         4.8591277614        4.5427775433       25.2011309017
  C         3.9099943831        6.5404481272       24.7846633737
  C         5.9302916547        1.6010493727       28.8895180560
  C         8.7069915637        3.2445405058       21.9472823392
  H         8.1587381692        1.5173032648       23.0941446863
  C         9.1283080164        4.9925770310       20.8019283452
  H         3.2351336037        6.1090604256       24.0946391513
  H         4.3428266466        7.4806886468       24.3429552012
  C         3.1820340512        6.7204282346       26.0845213463
  C         5.8759535619        0.1790508012       29.1266166953
  C         5.6261537344        2.3794182178       30.1809783664
  C         8.9999839269        2.5827375627       20.6222225759
  C         9.3262594526        3.8955412819       19.9118062377
  S         9.4233266742        6.5018409988       20.0457946540
  H         2.4329834869        7.4829360239       25.8415382384
  H         3.8432265425        7.2659938098       26.7505822424
  C         2.6409505583        5.3889197803       26.7088138891
  N         6.1022816773       -0.7465891277       28.1167549556
  C         5.6717030129       -0.4069075838       30.3731451342
  C         5.2742341025        1.7504242322       31.3482462634
  H         5.4477759153        3.3826274368       30.0459556863
  C         7.9117662506        1.7543201066       19.9618908038
  C        10.2047415014        1.7407158083       20.6855244592
  C         9.6035103805        4.3060512075       18.5516324852
  C         9.6802932126        5.6720783648       18.5082455397
  H         2.1374139244        4.7121041670       25.9370323519
  H         3.4636895905        4.7706608240       27.0302586174
  C         1.7242503288        5.7054008123       27.8843576645
  S         6.0671582811       -2.2170432953       28.7755754306
  N         5.7063047566       -1.7861715709       30.2795307255
  C         5.3467013940        0.3047604517       31.5373780305
  H         5.0034819550        2.3895762417       32.1273602009
  H         7.4837232775        1.0190418664       20.5830790143
  H         8.2954360479        1.3832614312       19.0274033932
  C         6.7029931597        2.6573044363       19.5550273081
  H        10.4291960353        1.2153931611       19.7874463511
  H        10.0550632793        0.9391928957       21.3877825414
  C        11.5128020419        2.4278927823       21.2467053623
  H         9.7855952204        3.5893438469       17.7794553082
  C         9.9736066250        6.4497854336       17.2172988245
  H         1.1799288786        4.7375446883       28.0812229051
  H         0.9691588359        6.4909918497       27.6921201546
  C         2.4469795727        6.1594760948       29.1299779778
  C         5.1585875860       -0.4519771786       32.7174095432
  H         7.0136945902        3.4992298488       18.9445033774
  H         6.3520703727        3.2454324627       20.4215161686
  C         5.6457873328        1.8872872512       18.7997886334
  H        11.1630323626        3.0422106435       22.1489415072
  H        11.9069667680        3.2868572099       20.6917403669
  C        12.5103657098        1.4592318915       21.6819532384
  C         9.9445807807        7.8380613107       16.9931311001
  C        10.2293030785        5.7414332581       15.9754673003
  H         3.3835600913        6.7972607354       29.0073821491
  H         1.7515699978        6.7248241634       29.6627925145
  C         3.0204731436        5.0835654575       30.0459322668
  H         5.2461962473       -1.5464651844       32.6498664514
  C         4.8092338628       -0.0629484797       34.0156896905
  H         4.9829625482        1.4441978844       19.5238594829
  H         6.1856234579        1.0724073785       18.3230161836
  C         4.8447513728        2.7254754696       17.8447190281
  H        12.0827366948        0.9321090570       22.5478551428
  H        12.7349326796        0.8062103767       20.8672624841
  C        13.6755635797        2.3576590109       22.1848206033
  N         9.7666973047        8.7615789214       18.0223633655
  C        10.1416683387        8.4089074693       15.8253301361
  C        10.6485167304        6.2653465636       14.7986965687
  H        10.0642167869        4.7113848435       15.9833668288
  H         3.8157838895        5.4975119374       30.6941276148
  H         2.1930004825        4.7112237848       30.7207470927
  H         3.3207212777        4.2721112442       29.3691815841
  S         4.3726607218        1.5242718080       34.5536548458
  C         4.7930074896       -1.1333506616       35.0225836031
  H         4.6554629791        3.7594733407       18.2363403073
  H         5.5050625980        2.8311478431       16.9518235855
  C         3.5227412556        2.1357637395       17.5289713595
  H        13.4027606295        2.5897023782       23.2312095799
  H        13.8972895311        3.2570404244       21.5961664837
  C        14.9203136448        1.5067816117       22.1911316400
  S         9.6338096374       10.2451041832       17.4095578486
  N        10.0851888259        9.8359357229       15.8811439295
  C        10.6148368085        7.7207934245       14.6485999697
  H        10.8719848577        5.6309892071       13.9800375574
  C         4.2166209981        0.8125514679       36.1800501284
  N         4.2733705200       -0.5542755742       36.1668378187
  O         4.9486935631       -2.3110342260       34.7372472190
  H         3.0644688645        2.8053186212       16.7819327844
  H         2.9925699165        2.3029882573       18.4457284227
  C         3.4893870819        0.6532455081       17.1434388018
  H        15.1247922373        1.1706664579       23.2298659268
  H        14.8563484550        0.6605785029       21.4952653052
  C        16.1745202839        2.3679148822       21.8622572236
  C        10.9692029809        8.4734498312       13.5373218137
  S         3.7444239896        1.6175923776       37.7003417808
  C         4.0403592176       -1.4140561020       37.3755640107
  H         3.2752075272        0.6293270110       16.0955479796
  H         4.4432117099        0.1254879272       17.2869387969
  C         2.4053767609       -0.0633519172       17.9877773298
  H        16.1053759584        3.3523853078       22.3212102293
  H        16.0549129441        2.4828750813       20.7901645863
  C        17.4526254298        1.5783300490       22.1241373218
  H        10.9758950716        9.5349803028       13.5741645405
  C        11.2524792200        8.1078443654       12.2243521670
  H         3.1796024134       -1.0364110412       37.9243646698
  H         3.6741450156       -2.3680813064       37.0275670574
  C         5.2264709484       -1.5498313272       38.3130023134
  H         1.4244665798        0.2854766946       17.7712493133
  H         2.5903862047        0.1676880994       19.0136622561
  C         2.5435041236       -1.5581163440       17.7392472417
  H        17.3133439960        0.5839006507       21.7645733082
  H        18.2562052599        1.8505385273       21.4646262079
  C        17.9593277289        1.6203667849       23.5650675901
  S        11.7683499416        6.5812161381       11.6662930992
  C        11.4509467768        9.1740524976       11.2398057268
  H         5.7867357505       -2.4465735470       38.1212297912
  H         5.9256912552       -0.6893920155       38.2329778508
  H         4.8307318687       -1.5336502024       39.3042622860
  H         1.7058169859       -2.0995045745       18.1372372494
  H         3.4291910304       -1.9469526531       18.2886892419
  H         2.6009826039       -1.7023882515       16.6973482863
  H        17.3412981470        0.8799575024       24.1486575901
  H        17.7433851787        2.5730846193       23.9379106476
  H        18.9957214639        1.3675153162       23.5908644280
  C        12.2463152677        7.4072019271       10.2187311797
  N        12.0747434346        8.7021438219       10.1721467240
  O        11.2638703938       10.3643435126       11.3473166486
  S        13.3076360572        6.6942205134        9.0397060463
  C        12.4712843109        9.5596574093        9.0474424416
  H        12.7118810668       10.5283854323        9.2942308988
  H        13.4053461829        9.1921261233        8.5889310521
  C        11.3010799963        9.7061392594        8.0449730007
  H        10.4606205356        9.9150385885        8.6162975488
  H        11.4949118298       10.3493288499        7.2092219863
  H        11.1354134238        8.7356642019        7.6159283013
  H         2.2974582093        1.4748607270       12.6973850452
  C         3.2567701063        1.9479681883       12.4313200892
  H         3.8869942613        1.1844156311       12.0879310839
  C         3.1754361168        2.8458746616       11.2124337175
  C         3.7554754970        2.6445760157       13.7012414352
  C         4.4087833066        3.0226074223       10.3010043383
  H         2.7019932415        3.7462912089       11.5237265059
  H         2.4157551638        2.4630623131       10.6277651514
  H         4.6239770494        3.3542210926       13.5506715197
  H         4.0845107130        1.8694563947       14.5101347575
  H         2.9805559658        3.2610936280       14.1409910127
  C         4.7683723873        1.7896647297        9.4823452954
  H         3.9694791956        3.7874519680        9.6646813087
  H         5.3419595609        3.4498083617       10.7593052549
  C         5.4319903676        1.9944298885        8.0862821457
  H         3.8702367504        1.1899038727        9.4083955024
  H         5.4088905165        1.1740782713       10.1426332475
  C         6.7113911572        2.8126899138        8.3029641506
  H         4.6657488840        2.4730647893        7.5316529727
  H         5.4434337694        1.0175960155        7.5869343077
  C         7.8579481958        2.0148217661        8.9742458429
  H         6.9895833718        3.1481141556        7.2824508380
  H         6.4857432068        3.7496217855        8.8019199538
  C         9.2146281712        2.8543665442        9.0155041470
  H         7.8777215727        1.0677042421        8.4325726275
  H         7.5253884525        1.7534701544        9.9989009036
  C         8.9423440657        4.2449251446        9.6165448319
  C         9.7377647121        3.4687885343        7.7844341899
  C        10.1851054493        2.0142897637        9.8709024787
  C         9.3047184903        5.3160190936        8.8239305091
  C         8.4636804143        4.7045913343       10.8024093204
  C         9.8075125225        4.8311751221        7.6498633463
  C        10.0682702695        2.6829070100        6.6831188338
  H         9.6018612857        1.7694542625       10.7572256895
  H        10.2540039394        1.1248012609        9.3247738085
  C        11.4792718201        2.7675165878       10.1624253809
  S         8.9231530218        6.8663439120        9.4806314062
  C         8.3311057031        6.0733391008       10.8878705165
  H         8.1736017394        4.0663294789       11.5769310842
  C        10.0850410303        5.3883204158        6.4274667627
  H         9.9372683080        1.6387746374        6.7873925156
  C        10.2890054030        3.3158793792        5.4434659023
  H        11.2794448072        3.7287492930       10.6039803824
  H        12.0281071092        2.9276921539        9.1923875137
  C        12.2748613531        2.0883552500       11.3646796751
  C         7.8076481883        6.8109799630       12.1057265055
  C        10.3128786571        4.6508416888        5.2146492617
  H        10.2500721042        6.4510879866        6.3201995480
  C        10.6140651605        2.8359244759        4.1866027028
  H        13.3463641577        2.3740640265       11.4281797142
  H        12.1575411895        1.0011458874       11.1826509042
  C        11.6707802534        2.4144099021       12.7067549970
  C         7.8120496237        8.1832454886       12.3655790553
  C         7.2125275725        5.8987715420       13.1052939259
  C        10.6979171903        5.2238984143        3.9568236183
  C        10.8802299635        3.8589915485        3.3133181684
  S        10.8833824443        1.3069730442        3.5250414012
  H        11.7300331114        3.4644540628       12.9684840068
  H        10.5584785949        2.1484811088       12.6822793007
  C        12.1404994621        1.5475905451       13.8598734558
  N         8.2006863653        9.1269887310       11.4066892643
  C         7.4923943176        8.7399546492       13.5936067302
  C         6.8141618531        6.4508729447       14.3776189298
  H         6.8197840354        4.9101335071       12.7779546573
  C        12.0631971103        5.9245539706        4.0948989205
  C         9.6214455367        6.0463475671        3.1586462767
  C        11.2532328667        3.3550934138        2.0105276877
  C        11.4032614999        1.9649005618        2.0085637897
  H        12.7725359734        0.7125132025       13.4823328301
  H        11.2022098206        1.1696012880       14.3428300622
  C        12.8793633809        2.2451744428       14.9828745342
  S         8.0367305714       10.5951389534       12.0993889715
  N         7.7355147541       10.1571545436       13.5878250009
  C         7.0475540366        7.9436570899       14.6852752178
  H         6.1743386792        5.8757746399       15.0595538616
  H        11.9114631056        6.8312331309        4.7122702936
  H        12.3565597813        6.3762867915        3.1298455247
  C        13.1927028634        4.9644054121        4.7164927176
  H         9.0637596872        6.7105237648        3.9020200977
  H        10.0855316033        6.6715910081        2.3892675705
  C         8.4602756829        5.1774702992        2.7062330650
  H        11.6136948021        4.0379490723        1.2645681356
  C        11.8215585358        1.0998892811        0.8404827135
  H        13.9181332771        2.0567733696       14.7777274728
  H        12.6721182158        3.3108014258       15.0109480752
  C        12.4544044175        1.8267106751       16.4200711728
  C         6.7483238848        8.5110569639       15.9883834214
  H        12.8031294084        4.7392514131        5.7124615289
  H        13.2233804673        4.0217457891        4.2476663354
  C        14.6272026655        5.5417440387        4.7830338570
  H         7.9154404823        4.6968494414        3.5603375422
  H         8.7217642630        4.3916571782        2.0071505125
  C         7.4820092333        6.0620726548        1.9579685895
  C        11.8802266233       -0.3097575356        0.7576587875
  C        12.1694090063        1.8018849934       -0.4199332422
  H        12.6589063583        0.7528864865       16.5991568635
  H        11.3446159945        1.9454615538       16.6582490286
  C        13.0886461272        2.6266798769       17.5495081907
  H         6.7252612289        9.5867995277       15.9602402873
  C         6.4677255566        7.9968613194       17.2363693753
  H        14.5667839631        6.6103810921        4.9788132808
  H        14.9681210398        5.3833881273        3.7543696399
  C        15.4671630709        4.9324587509        5.9340075233
  H         7.3809357965        6.9875729495        2.4120671961
  H         7.8821571448        6.2738528534        0.9331269467
  C         6.2565655898        5.2536392001        1.7980812819
  N        11.5169045148       -1.2669149166        1.7437055279
  C        12.3206387168       -0.9358645942       -0.3564276988
  C        12.4994497134        1.1355600531       -1.5381953772
  H        12.0950286959        2.9227527561       -0.4655572200
  H        12.5573559081        3.5137985311       17.6859934028
  H        14.1535442730        2.6923992135       17.2272060578
  H        13.1184970293        2.0807793850       18.4428871972
  S         6.4334736897        6.3655111974       17.6447667712
  C         6.2244738753        8.9852210663       18.2884905170
  H        14.8535602242        5.1172534415        6.7977035608
  H        15.6410945888        3.9438294752        5.9026294030
  C        16.8272832407        5.5940755155        6.0434176014
  H         5.9636650776        5.1197810692        2.8096609009
  H         6.3837437504        4.2724106163        1.4182652785
  C         5.1838987473        5.9997101895        1.0191911130
  S        11.6816496130       -2.7401555077        1.1507583263
  N        12.2866826059       -2.3335578590       -0.2839305765
  C        12.5857052928       -0.2972961084       -1.5987776094
  H        12.5676983377        1.7700340047       -2.4476802508
  C         6.0361326775        7.0097237067       19.3144577190
  N         5.8786123312        8.3664362774       19.4068634860
  O         6.1389858768       10.2347964505       18.1490372879
  H        17.3786226741        5.4926136995        5.0917116299
  H        16.7451564939        6.6432449040        6.2437435727
  C        17.6832505188        4.8622280619        7.0889536961
  H         5.5711755617        6.5066780114        0.1621519134
  H         4.2687379228        5.3726995988        0.7738162553
  C         4.5499092908        7.2103964021        1.8511272768
  C        12.8834966728       -1.0874491740       -2.7615969431
  S         5.8160005512        5.9699083847       20.7961493112
  C         5.6930386512        9.1519289746       20.6363745264
  H        17.0882891048        4.6621166989        7.9577358058
  H        18.1715190715        3.9880740874        6.6510500715
  C        18.8319730210        5.8613594890        7.3979426763
  H         5.2299811521        7.6462663132        2.6429622180
  H         3.7331821023        6.7808737395        2.4383422544
  C         4.0215208518        8.3576508678        1.0704744450
  H        12.5584700328       -2.1801329500       -2.6882216918
  C        13.3070432205       -0.7350651280       -4.0245050390
  H         4.9977647805        8.6540874605       21.2422951685
  H         5.1496403428       10.0900696985       20.4018808864
  C         7.0115914779        9.4478000405       21.3751579992
  H        19.4951561774        5.3936125079        8.1274669083
  H        18.4960286933        6.7684969810        7.8500490417
  C        19.6758024517        6.1959456953        6.1632236520
  H         4.7266803492        9.0367636543        0.5741769854
  H         3.4766820007        7.9718020844        0.2668031414
  C         3.1531365678        9.2547396550        1.9695043771
  S        13.7267357283        0.8394330452       -4.5364968318
  C        13.3246292401       -1.8623484877       -5.0262451543
  H         7.3638880148        8.4985561228       21.6823830614
  H         6.8931036382       10.0620402713       22.2468076184
  H         7.7958606898        9.8772761306       20.7061652359
  H        20.0066715726        5.2353785117        5.7113168945
  H        19.2007725580        6.8810398833        5.4054886923
  H        20.7200353800        6.6302328995        6.4624252639
  H         2.7451531614        8.6920315803        2.8091308721
  H         3.6855850935       10.1424560421        2.2576456268
  H         2.3534899885        9.6708337384        1.3408082756
  C        14.0615390349        0.0838340141       -6.1271482931
  N        13.8806140823       -1.2724452685       -6.1374553934
  O        13.0472261742       -3.0965153864       -4.8736454583
  S        14.6032514101        0.9168012383       -7.6555854854
  C        14.0775086463       -2.0267707022       -7.3494726705
  H        14.2375295838       -3.1019961367       -6.9585074154
  H        15.0176884970       -1.9065542593       -7.8214418781
  C        12.8853848295       -2.1416302253       -8.2557459166
  H        12.7255907347       -3.1635991457       -8.5609035423
  H        13.1644714509       -1.6584570808       -9.2006232484
  H        11.8992378553       -1.7547469065       -7.9110362053
