352
 i =    70100, time =    35050.000, E =        99.2510558392
  H        11.0844060236        7.4367127535       32.2552378071
  C        10.9655438617        6.3790576212       32.3979420727
  H        11.9684669662        5.9314868658       32.2460933732
  C        10.2126040850        5.7368938503       31.2846115522
  C        10.2858708351        6.1421032745       33.7534294406
  C        10.7310902000        6.1679165441       29.8942198392
  H        10.4671869880        4.6677175675       31.3563591386
  H         9.1723182254        5.8147970834       31.4814490401
  H        10.8027145656        5.4411608920       34.3571494877
  H        10.2446703211        7.0582723186       34.2657355132
  H         9.3310388299        5.6700589847       33.6340506230
  C        10.3209653522        5.2525996494       28.6951472450
  H        11.7317592682        6.3943726613       29.9800736220
  H        10.2290507009        7.0816008439       29.6665164036
  C        10.7270191915        5.7107891245       27.3249544289
  H        10.6982249982        4.2608619367       28.8070201772
  H         9.2262530243        5.3219266411       28.6131626532
  C         9.8707138386        5.0285968777       26.2538643039
  H        11.7160497033        5.1626018074       27.0752951625
  H        10.9956321975        6.7599367091       27.0705051608
  C         8.7002792596        5.9096557146       25.8919064313
  H        10.5333097554        5.0478546012       25.3823618253
  H         9.6177643245        4.0579275519       26.5725469128
  C         7.5212998165        5.1578884218       25.2421137334
  H         8.3733826043        6.3914151953       26.8537613824
  H         9.1777410169        6.6745504197       25.3330593895
  C         7.3193600872        3.7476822358       25.8545128698
  C         7.8981593519        4.4945120305       23.9708828435
  C         6.2534763061        5.9971150672       25.2170184116
  C         7.4683418896        2.7016147020       24.9947789340
  C         6.8319268520        3.3601863871       27.1234394361
  C         7.9019275627        3.1304551544       23.7909475832
  C         8.4828041449        5.1493617724       22.8800629682
  H         6.5050862482        6.8487456292       24.6061245214
  H         5.9925361691        6.4592993416       26.1446698810
  C         5.0385076594        5.4293181133       24.3857982476
  S         6.9528122123        1.2015897116       25.7270352523
  C         6.5469771445        2.0294158379       27.1964019749
  H         6.7066828289        4.1446050627       27.8553952568
  C         8.3954188881        2.5679402343       22.6286892080
  H         8.5167381474        6.2450230610       22.9189100962
  C         8.9416238566        4.5517630287       21.6801239829
  H         5.3201150893        5.1129202081       23.3985459809
  H         4.6619704525        4.5115902679       24.8250716435
  C         3.8324864216        6.3643605982       24.3860402887
  C         6.1024478563        1.3554672346       28.4119694033
  C         8.8970742028        3.2301082743       21.5365026749
  H         8.4030981915        1.5153852259       22.4977172687
  C         9.3429116354        5.0067633644       20.4100164776
  H         3.0942114790        6.2450470069       23.5189869863
  H         4.3962477008        7.3462388638       24.1939204458
  C         3.2133489729        6.4472881998       25.8271616424
  C         6.1291605258       -0.0331236467       28.6854220356
  C         5.6986809878        2.2625505659       29.5725888250
  C         9.2484961689        2.5253980165       20.2324242638
  C         9.5760984550        3.9322755511       19.5549242862
  S         9.7342257893        6.5704785619       19.7341810944
  H         2.3443481602        7.0818391110       25.6731621539
  H         3.7889139216        7.0625886748       26.5928087466
  C         2.8859793522        5.1191322202       26.4249924805
  N         6.2932082192       -0.9803963933       27.6944471537
  C         5.8031879383       -0.5374119722       29.9280350126
  C         5.4561532728        1.7559187503       30.8225324638
  H         5.7372583218        3.3328107480       29.4701826389
  C         8.0745660775        1.8309041701       19.4256735363
  C        10.5009803668        1.5831151698       20.2319133779
  C        10.0086939512        4.3557646978       18.2536625873
  C        10.1146301515        5.7647348310       18.2650300664
  H         2.4210704322        4.5182832704       25.6398979430
  H         3.7396106409        4.5768382445       26.7003376108
  C         1.8584159368        5.2774808170       27.5521205750
  S         6.1933737566       -2.4423741530       28.3570700631
  N         5.7824915668       -1.9436829358       29.8788934805
  C         5.4835241622        0.2952551442       31.0652727596
  H         5.0639359763        2.4723246450       31.5539712396
  H         7.7062257640        0.9257875516       19.9780933862
  H         8.4194535207        1.4578995256       18.4710186556
  C         6.9310795100        2.7579489844       19.0713262233
  H        10.7259206182        1.3814462446       19.2468815990
  H        10.3365908022        0.6565310575       20.7638399418
  C        11.6472989967        2.1692123943       21.0166474019
  H        10.2502021653        3.6810047560       17.4878346520
  C        10.3757931384        6.5573504450       16.9681290901
  H         1.4534161742        4.3005531237       27.5722658080
  H         1.0162884889        5.8854082810       27.1035141996
  C         2.5985358320        5.6747869731       28.8479883829
  C         5.1722991532       -0.2917158755       32.3315039718
  H         7.2350465597        3.4373705399       18.2495236282
  H         6.7180227163        3.4340880272       19.9206821145
  C         5.7015886097        1.9591969043       18.6828248662
  H        11.3892423890        2.3008306815       22.0353225156
  H        11.8908152459        3.1524846701       20.6383303023
  C        12.9076031452        1.3223019749       20.8315833250
  C        10.4037968525        8.0017036311       16.9196065225
  C        10.3471826431        5.7961386438       15.6688396806
  H         3.1628629451        4.7763185487       29.1697940110
  H         3.2912062533        6.5113239808       28.5673993648
  C         1.7165103926        6.0590221334       30.0132166204
  H         5.3658870768       -1.3559486907       32.3261274110
  C         4.7206570367        0.1618828328       33.5725633421
  H         5.3318598546        1.6254174449       19.7071977674
  H         5.9398492002        1.0053923383       18.1135408916
  C         4.7151198064        2.8691184927       17.9929866597
  H        12.7285227093        0.4432826369       21.3991491701
  H        12.9850214609        1.0752989970       19.7997703311
  C        14.2818452752        1.8811498901       21.2679892869
  N        10.1594967463        8.9015155397       17.9183833948
  C        10.6291104531        8.6395219975       15.7240461461
  C        10.6342342634        6.5129268735       14.5262179870
  H        10.2307905975        4.7312078381       15.6294953227
  H         1.5783010776        7.1667561277       30.2571979509
  H         0.6965690161        5.6672073562       29.9384740118
  H         2.1404714233        5.6179121019       30.9447018720
  S         4.2348800626        1.7579745023       34.0124613950
  C         4.5931829583       -0.8978931342       34.6206885085
  H         4.5827314243        3.7667623422       18.6377917082
  H         5.0899986533        3.1623804637       17.0202280517
  C         3.3500088306        2.2969621959       17.7102932059
  H        14.6885773845        2.3805051799       20.3821841419
  H        15.0158544208        1.1269751244       21.3335560208
  C        14.3870679774        2.6909665542       22.6038235183
  S        10.2318313361       10.4372262045       17.3121820735
  N        10.5837128375        9.9972944350       15.7889960633
  C        10.9129275062        7.9536338895       14.4731901288
  H        10.9230139633        6.0305729534       13.5841897986
  C         3.9081410416        1.0771907872       35.5799963403
  N         4.0940669969       -0.2791995025       35.7402646063
  O         4.7922419352       -2.1165299819       34.5041764997
  H         2.7869310848        2.9628682858       17.0625862229
  H         2.6283449582        2.2395459248       18.5245341333
  C         3.2876637719        1.0458362840       16.8779653888
  H        13.3868203241        3.1249451971       22.8605542127
  H        14.5818846689        1.9143534036       23.3496192498
  C        15.5364192297        3.7682563114       22.5610620256
  C        11.2288013732        8.7603900587       13.3559316714
  S         3.1434656578        1.9117580206       36.9044709828
  C         4.0096183998       -1.0665693449       36.9893379560
  H         2.6908787764        1.1325530721       16.0016781457
  H         4.2398947670        0.6891981226       16.5646713542
  C         2.5507191717       -0.1141748077       17.6754560108
  H        15.9512382157        4.0385096242       23.5337689651
  H        15.2812057955        4.7882972981       22.1826087980
  C        16.8727910496        3.2603633985       22.0097419614
  H        11.0922097848        9.9028097414       13.5199717829
  C        11.6589274377        8.4141078438       12.0983169421
  H         3.2932614346       -0.6312161481       37.7140199198
  H         3.6221261127       -2.0600216062       36.6002867969
  C         5.3486465189       -1.3311325057       37.6359982308
  H         1.4766364217        0.0762864274       17.6655472927
  H         2.8023946796       -0.0660685923       18.7002587016
  C         2.7578778256       -1.4311244233       17.0105676412
  H        16.9057877009        2.8515869329       21.0046081463
  H        17.5388788324        4.1147826499       22.1063007266
  C        17.6236087912        2.1544298538       22.8866428886
  S        12.0164652009        6.8730361906       11.5304950257
  C        11.8556031276        9.5171079563       11.1276067133
  H         5.5207780228       -0.8199503294       38.5542847338
  H         5.4740553505       -2.4185271440       37.8313047616
  H         6.1153474115       -1.1149402293       36.9234159580
  H         2.6217041574       -1.2566714368       15.9481871226
  H         1.9699898084       -2.1137408859       17.2541764676
  H         3.7497884536       -1.8330768927       17.2254897597
  H        18.7013797574        2.1598003252       22.6640199457
  H        17.2139257414        1.1413020785       22.5468127959
  H        17.5444127300        2.3254453735       23.9628032873
  C        12.5575473796        7.6688721944       10.0691072797
  N        12.4427551181        8.9755312703       10.0921153819
  O        11.5457863896       10.7074326135       11.2319446338
  S        13.2075409378        6.8284770784        8.6469901551
  C        12.7802393639        9.8386337618        8.9740909392
  H        13.2427988330       10.7742684881        9.2535177568
  H        13.5426758872        9.3496918573        8.3485717576
  C        11.5810828464       10.0847088032        8.0402759674
  H        10.7032661042       10.2343558422        8.6340282686
  H        11.6476751854       10.9811528197        7.3936452065
  H        11.3834464671        9.1919618776        7.4215088472
  H         4.4035269731        2.1384170750       12.3205900242
  C         3.7280104635        3.0029774382       12.4783967514
  H         4.3238209020        3.9174293937       12.6532444338
  C         2.8823996381        3.1466046642       11.1911817685
  C         2.9288297513        2.7669720662       13.7099707989
  C         3.6102610759        3.3864381808        9.8855245875
  H         2.2622286697        3.9839234806       11.4117897096
  H         2.2154533400        2.2954734193       11.0726625332
  H         2.3770309846        1.7843064567       13.6999932956
  H         2.1708523377        3.5002749191       13.9166318696
  H         3.6653022348        2.7192119574       14.5713674174
  C         4.3928863861        2.1025998810        9.2546438838
  H         2.8782804470        3.8775979404        9.2364367451
  H         4.3214217752        4.2291517226       10.0183322498
  C         5.3848185605        2.3953399590        8.0476001846
  H         3.6634433116        1.4237486298        8.8344523102
  H         4.9603498626        1.5673433910       10.0143939139
  C         6.6446880514        3.2269592339        8.3738764263
  H         4.9337126690        2.6878914118        7.0949156267
  H         5.8048777397        1.3836954915        7.9076488909
  C         7.8524410104        2.3108080414        8.5459460324
  H         6.9334422981        3.9626626328        7.6342940807
  H         6.2861186250        3.6870190364        9.2722422882
  C         9.0732728390        3.2019868844        8.8496586597
  H         7.9986597473        1.7729607853        7.5970821225
  H         7.7330511380        1.5870026800        9.3819890567
  C         8.6941909849        4.5017594031        9.6005874726
  C         9.6461205502        3.9554181148        7.6829186097
  C        10.2933214566        2.4536994905        9.5437419084
  C         8.9296666607        5.6395500721        8.8588356226
  C         8.1574954739        4.7827093696       10.8608583815
  C         9.5447466853        5.3147644463        7.6369611006
  C        10.2925828057        3.4004324909        6.5882287328
  H         9.8576745158        2.0280971915       10.4366319483
  H        10.7598619814        1.6940907827        8.9639856658
  C        11.4945994635        3.4030369887        9.6409551256
  S         8.6830879901        7.0508202271        9.8042580736
  C         8.0488854916        6.1011248303       11.0961803639
  H         7.8466250454        3.9411181719       11.4775531881
  C        10.1046240190        5.9746755479        6.5632619893
  H        10.3459415589        2.3197987420        6.6394577131
  C        10.7359515428        4.0728117671        5.5212602891
  H        11.1512278764        4.4042259665        9.9323242995
  H        12.0742203559        3.2599841413        8.7201166627
  C        12.3063061014        3.0074845518       10.8982803514
  C         7.6759233303        6.7981316029       12.3627796119
  C        10.7154117046        5.3943406484        5.4425422114
  H         9.9799434098        7.0528990439        6.6185949782
  C        11.1768359923        3.7056082294        4.2538837597
  H        13.0616744174        3.7637788428       10.9612184236
  H        12.8797791482        2.0976421471       10.7372326859
  C        11.4969478840        2.9432686203       12.2353214210
  C         7.8807802047        8.1533707190       12.6981858844
  C         7.2271079861        5.9634720416       13.5377174446
  C        11.1696169622        6.1938667495        4.2892145256
  C        11.4691800867        4.8149311739        3.4719941504
  S        11.4602338570        2.2279367525        3.4927693765
  H        10.6017688006        3.5365366725       12.0472585875
  H        11.3651773476        1.8961976591       12.4682498801
  C        12.3249096443        3.5328034850       13.4677485247
  N         8.3131079460        9.1378757865       11.7774549484
  C         7.6699963213        8.6317932801       13.9789039378
  C         6.9789785847        6.4099243347       14.7614650073
  H         7.1271578426        4.9031567334       13.5031520235
  C        12.4997864514        6.9907126805        4.5241689828
  C        10.0042862077        7.0468600647        3.6271275115
  C        11.9524563890        4.4599640123        2.2250422296
  C        11.8912895097        3.1029865681        2.0340560080
  H        11.6472669316        4.0813712189       14.1372777989
  H        12.9068408145        4.3255949978       13.0570064351
  C        13.2930852549        2.6816955132       14.3003832110
  S         8.2838071513       10.5592671493       12.5956786269
  N         7.8838766769        9.9888687933       14.0762296173
  C         7.1961957913        7.8326013000       15.0846784628
  H         6.5833362330        5.7363319743       15.5145064699
  H        12.4341613293        7.6610374461        5.3587786322
  H        12.8124426234        7.5753552755        3.6930528668
  C        13.6958572883        6.0169905163        4.7058981917
  H         9.6318117994        7.7715467126        4.3558485219
  H        10.4275861173        7.7231124425        2.9087143115
  C         8.8514013686        6.3422660420        2.8658775307
  H        12.0892541315        5.1748509869        1.4805915830
  C        12.1206713179        2.3623162018        0.7346458702
  H        13.5732440566        1.8285769260       13.6425020615
  H        14.1208591124        3.2638353257       14.6342988130
  C        12.7379692639        2.1700321177       15.6502998404
  C         6.9274106046        8.4805139186       16.3304317978
  H        13.4474037496        5.4117551398        5.5413894729
  H        13.9319565613        5.4470856658        3.7615291913
  C        14.9155477901        6.8805825450        5.0620601741
  H         8.3710691216        5.6123464489        3.5400632783
  H         9.3766954593        5.7823516476        2.0879979613
  C         7.7185237766        7.1128771530        2.2032386162
  C        12.0987960797        0.9913133892        0.5793634641
  C        12.5218821584        3.2095154161       -0.4404326049
  H        13.2321590359        1.2240878061       15.8578003751
  H        11.6106197006        1.9798217475       15.5991219533
  C        13.1622781336        3.0731936313       16.7811131038
  H         7.0586152883        9.5679373961       16.3611636085
  C         6.5170156764        8.0932865969       17.5995086837
  H        14.6479955631        7.6942045332        5.7840454904
  H        15.2817044116        7.2887087771        4.0810266367
  C        15.9209409073        5.9829066281        5.6861311453
  H         7.2640691660        7.7697837874        2.9832764086
  H         8.2143059745        7.8362804500        1.4564527044
  C         6.6678375356        6.1776295102        1.5973605176
  N        11.7918342303       -0.0135453405        1.5480815734
  C        12.3330958756        0.3764420631       -0.6642250806
  C        12.7048073981        2.5880845013       -1.6673777797
  H        12.6970651549        4.2442731160       -0.2172883156
  H        14.2081352633        2.9816046165       16.9132972641
  H        12.6796017073        2.8428976698       17.7162622672
  H        13.0185999772        4.1228931740       16.5530536073
  S         6.0667166357        6.5356949178       18.0435965457
  C         6.4800773498        9.1883895067       18.6412058136
  H        15.4063350306        5.3258790245        6.3709704805
  H        16.3492266057        5.3452786251        4.8623346750
  C        17.0169208429        6.7393287751        6.3842975062
  H         6.1191107588        5.6318851348        2.3716047572
  H         6.9918654586        5.3568186970        0.9528241253
  C         5.6195808558        6.9315151214        0.8028000850
  S        11.8167701808       -1.4930240270        0.8935112800
  N        12.2605551548       -1.0106037415       -0.6037736218
  C        12.6571515446        1.1009777747       -1.8270697600
  H        12.9843883152        3.2594494470       -2.5085829822
  C         5.9436052390        7.2650457213       19.6682542345
  N         6.1206014962        8.6026307997       19.8107370218
  O         6.9119152878       10.3676427882       18.5202870835
  H        17.5754251950        7.4784630991        5.7785085888
  H        16.6055721151        7.3316259763        7.1902569906
  C        18.0532395810        5.7333615833        6.9728402624
  H         6.0187957698        7.4287736062       -0.0597745599
  H         4.8926083322        6.2572880409        0.3069073956
  C         4.6937777842        7.7880742497        1.6859692462
  C        12.8752559226        0.4611565955       -3.0859966015
  S         6.0151500025        6.3460760597       21.2235282534
  C         6.0962389169        9.2692305985       21.1209847695
  H        17.6169328332        5.0912550667        7.8146546573
  H        18.3858364943        5.1053470014        6.2116164613
  C        19.4410756245        6.2820055117        7.4328940064
  H         5.1872428012        8.1755319346        2.5910129351
  H         3.8429879802        7.2462102938        2.0743643543
  C         4.2629329074        9.0237840336        0.9609618997
  H        12.4743549206       -0.4851818691       -3.1473202585
  C        13.4036928551        0.8031679612       -4.3334880076
  H         5.4528338335        8.7731455889       21.7991831715
  H         5.6968504938       10.2737510128       21.0566095025
  C         7.5070253405        9.5305982301       21.6856682798
  H        19.7451789618        5.5507892458        8.2047900590
  H        19.2571838977        7.1924348389        8.0151177789
  C        20.5133871938        6.3064312813        6.3645134449
  H         3.9811530605        8.8462841729       -0.0377234770
  H         3.4885693418        9.5164346312        1.4814362986
  C         5.4468949737        9.9791683987        1.0247266827
  S        14.0629530169        2.3341600810       -4.8083561545
  C        13.3674739402       -0.2125605526       -5.4016458377
  H         8.2610539541        9.0849863179       21.0097505137
  H         7.5458915355        9.0228449350       22.6535530250
  H         7.7496239245       10.6068168242       21.7111726292
  H        20.1066590769        5.8072531817        5.4814331536
  H        20.7838337521        7.3332958335        6.0097148617
  H        21.4282594409        5.8027739970        6.6181584869
  H         6.3001465029        9.6610199241        0.3836761318
  H         5.1723690403       10.9708186002        0.6606103889
  H         5.8178262535       10.1012436901        2.0690316344
  C        14.2225033846        1.6844598485       -6.4572608866
  N        13.9257224656        0.3509356818       -6.5136957822
  O        13.0226407880       -1.4005437550       -5.2645794685
  S        14.6835283889        2.5087256330       -7.9194494145
  C        14.0061737916       -0.5458863241       -7.7168053518
  H        13.9431014969       -1.6125126956       -7.3931304588
  H        14.8836820209       -0.5223412474       -8.3343382094
  C        12.6965559754       -0.4013675512       -8.6499175068
  H        13.1166061843       -0.0012216690       -9.5609461800
  H        12.0368201186        0.3990567141       -8.3251628106
  H        12.1499992887       -1.3176177438       -8.8831423335
