352
 i =    53400, time =    26700.000, E =        99.9137716298
  H        10.1026176477        4.2777340130       31.6219252061
  C        10.5275704401        5.1761608938       32.0285469180
  H         9.6975544835        5.6699107842       32.5396247981
  C        11.0942496873        6.1760463555       31.0165114029
  C        11.5601509827        4.7367647772       33.0518978260
  C        11.5668861192        5.4977793970       29.7079442748
  H        10.3345393685        6.9042458137       30.8594790991
  H        11.9452324011        6.6346262650       31.5627509263
  H        12.4388891039        4.2617258634       32.5791870983
  H        11.9840376712        5.6027362445       33.6446617070
  H        11.1689738773        3.9385333128       33.6326398296
  C        10.4840369614        4.9674128559       28.7274696437
  H        12.1226091161        4.6092814453       29.8580811044
  H        12.1538052343        6.2208476567       29.0643322534
  C        10.8435717020        5.2000175776       27.1836130407
  H        10.2575527093        3.9494513081       28.8553861540
  H         9.5367113682        5.4123741245       28.9123757480
  C         9.9221510263        4.4769397190       26.2153474597
  H        11.8888092231        4.8471627864       27.0718897187
  H        11.0219173514        6.2578237233       27.1010726659
  C         8.6907262480        5.3753515822       25.9678826871
  H        10.4788536857        4.0457547255       25.3643879511
  H         9.5716760368        3.5883436758       26.6676647033
  C         7.4924076045        4.6542414038       25.4277418519
  H         8.5025051966        5.8993417958       26.9509216384
  H         8.9073682823        6.1360055222       25.2324994881
  C         7.0112298390        3.3260583950       26.0425131467
  C         7.8565023884        4.0470658543       24.1100888526
  C         6.2995852549        5.6845304239       25.3261866154
  C         7.2545665462        2.2708437747       25.1840068368
  C         6.4639003476        2.9413536341       27.2801067488
  C         7.7116155604        2.7204581455       23.9692654862
  C         8.4259097861        4.6989473388       22.9796338744
  H         6.6214728540        6.4230324173       24.6018949892
  H         6.0626491688        6.0086660778       26.3007957764
  C         4.9337488909        5.0124319076       24.9037531489
  S         6.7466597485        0.7429756635       25.8278060010
  C         6.2815596344        1.5695199615       27.3572709561
  H         6.3769123508        3.6588277043       28.0573176966
  C         8.1101529810        2.1164985092       22.8372818848
  H         8.6281513786        5.7885336363       23.0698453092
  C         8.6855372586        4.0961407446       21.8151049054
  H         5.0208874963        4.5241053758       23.9471828912
  H         4.4755970301        4.3606078633       25.6127281948
  C         3.7588970486        5.9588892027       24.7379023238
  C         5.8419897510        0.7982185586       28.6138992404
  C         8.6142622113        2.7755083685       21.6893683385
  H         7.8598873332        1.1172037256       22.6421139073
  C         8.9805167212        4.4390413858       20.5083205659
  H         3.0717511333        5.6850151688       23.9393587055
  H         4.0748210983        6.9427263864       24.2661239365
  C         3.0596233970        6.1182481936       26.1152459110
  C         5.8416399714       -0.5902027100       28.8281866085
  C         5.3803854663        1.6402509027       29.8058266018
  C         8.8118059711        2.1001443085       20.3466820049
  C         9.0230627610        3.3983946700       19.6125839537
  S         9.2903008436        6.0005216693       19.8131679969
  H         2.5273117836        7.0426029743       25.9846949917
  H         3.7951152181        6.3291553118       26.8279103700
  C         2.0513101097        4.9844056889       26.5300873223
  N         6.0963999296       -1.5793120944       27.8513508884
  C         5.5387732157       -1.1828503159       30.0395334594
  C         5.1145907933        1.0563313247       31.0430271764
  H         5.2651928653        2.7137897308       29.7170555860
  C         7.6756797410        1.2115584447       19.6733605519
  C        10.1157919594        1.2966150847       20.5677447599
  C         9.3126572426        3.8806201740       18.3073139721
  C         9.4924448315        5.2078839401       18.2688515420
  H         1.1220126600        5.2339812591       25.9763580139
  H         2.2160296955        3.9549890003       26.2236359066
  C         1.6853802232        4.9812436900       27.9802527403
  S         6.0412116787       -3.0067730160       28.6050315675
  N         5.7517175238       -2.5422360454       30.0804229022
  C         5.2615336259       -0.4238029906       31.2506265472
  H         4.8973883542        1.6800607960       31.8671205975
  H         7.4444438999        0.3406196507       20.3290778825
  H         8.0477053909        0.8030488228       18.7168683022
  C         6.3173420821        1.8988792293       19.4323609882
  H        10.3843092286        0.8631688415       19.5748831168
  H         9.9634672457        0.3919478450       21.1894492605
  C        11.3615373702        2.0601036980       21.0707838233
  H         9.4608085805        3.1784241723       17.5124600889
  C         9.7596611521        5.9991973570       17.0346418304
  H         1.0475374863        4.1455407389       28.2316145581
  H         1.0028188521        5.7938392285       28.2178888887
  C         2.8613987273        4.8810605033       28.9563559514
  C         5.0863885249       -1.1100657314       32.5401685106
  H         6.4426138894        2.9804908427       19.6170949180
  H         5.6980312662        1.5282681164       20.2369246696
  C         5.5578095794        1.4538479665       18.1514629437
  H        11.1598041494        2.4306783409       22.0697447056
  H        11.6656770005        2.8500857549       20.4048829511
  C        12.4744016318        1.1477348211       21.2001259402
  C         9.8365698222        7.4306878731       16.8751145696
  C        10.0993655981        5.2708463518       15.7865568421
  H         3.5956049633        4.1363091009       28.7075702118
  H         3.3978171109        5.8323740116       28.9772221504
  C         2.5326637530        4.5235312449       30.3712401787
  H         5.2672174980       -2.1568981583       32.5220260661
  C         4.7989465686       -0.6493561250       33.8554839935
  H         5.7221005586        0.3951646687       18.1137575995
  H         6.1081504177        1.8345150334       17.2338237531
  C         4.1146768135        1.9701160873       18.2515596121
  H        12.2432722594        0.4066132972       21.9901092405
  H        12.5977275306        0.6814296635       20.1955302320
  C        13.7363270103        1.9584262526       21.4671665852
  N         9.4994790955        8.3029118161       17.8392482716
  C        10.0513859897        8.0456200731       15.6635993424
  C        10.3993662705        5.9155477329       14.5791415005
  H        10.1458767387        4.1872609350       15.8579664731
  H         3.2003149460        3.8711076067       31.0044098420
  H         2.5208111487        5.4687141441       30.8270602656
  H         1.4761192114        4.1881590664       30.5652488513
  S         4.3343629163        0.9402037990       34.2857188452
  C         4.7958545372       -1.5825931955       34.9520515413
  H         3.9818591904        2.8768752549       18.9050347812
  H         3.9644682900        2.3097769522       17.2029478588
  C         3.1277670023        0.8585314889       18.5813483766
  H        13.6009260546        2.6409032776       22.2718857960
  H        13.7671866556        2.5932312009       20.5816937271
  C        15.0091588006        1.1368497931       21.3414015235
  S         9.7021354369        9.8292423972       17.3506129247
  N         9.7942237375        9.4457139289       15.7949689834
  C        10.4352695481        7.3939264459       14.5036579429
  H        10.7376776896        5.3129253763       13.6619533120
  C         4.2378204561        0.3840810236       35.9187503742
  N         4.4142665318       -0.9423912914       36.0654044979
  O         5.0810276211       -2.7930863639       34.7978585589
  H         2.1738016953        1.1845531449       18.9022118803
  H         3.6733367586        0.2495875852       19.3316150285
  C         2.8976094124       -0.1053329999       17.4261921389
  H        14.9929032579        0.3740264385       22.1721333337
  H        15.1390223034        0.5601239092       20.4582869207
  C        16.2699169308        2.0135885890       21.5340446178
  C        10.6046121090        8.1909522217       13.3754568659
  S         3.5493549389        1.2582781382       37.2253858856
  C         4.5105172675       -1.5442335467       37.4109862139
  H         2.6617475739        0.3538727183       16.4751544697
  H         3.8305475836       -0.7395054376       17.2946597437
  C         1.7803976334       -1.1485066931       17.7864697357
  H        16.0221696627        3.0158291761       21.9962338858
  H        16.7228122417        2.2669765520       20.5794946044
  C        17.2437368070        1.2585982745       22.4348272688
  H        10.3654375649        9.1842227961       13.5818770825
  C        11.1139167910        7.8538885142       12.1370370738
  H         3.7955534152       -1.1723870359       38.1503515040
  H         4.0711658158       -2.5312756989       37.3330020273
  C         5.9561035027       -1.5981477802       37.9017015492
  H         0.7912102684       -0.6972805218       17.8234987090
  H         1.9913740807       -1.5132001230       18.8350100733
  C         1.7348745599       -2.1742755093       16.6255429254
  H        17.4784908203        0.2982109798       22.1148269363
  H        18.2895490669        1.6995480747       22.3344419444
  C        16.8022439667        1.2367545084       23.9140014392
  S        11.6264418751        6.3594201151       11.5262474228
  C        11.2774634284        8.9748093401       11.2240375810
  H         6.6991806055       -1.2001708656       37.1790180742
  H         6.2543557139       -0.9909731792       38.7614566762
  H         6.1804093030       -2.6181633126       37.9869891195
  H         1.1232687979       -2.9898865928       16.8791196683
  H         2.6563059433       -2.5413122639       16.4107142322
  H         1.2645050414       -1.7727574178       15.8077972902
  H        17.7116374274        0.9853804319       24.5501111539
  H        16.0110265922        0.4770857908       24.2422580502
  H        16.5722063925        2.2252111241       24.1839157621
  C        12.1205554087        7.1975071965       10.0838243405
  N        11.9573613544        8.5275776887       10.1180430565
  O        10.8484301806       10.0459787664       11.5002826166
  S        13.2044250266        6.4258340050        8.8873463148
  C        12.1694883980        9.4197661179        8.9291274969
  H        12.1879870614       10.4546347862        9.2109916298
  H        13.1132586113        9.2430098173        8.3636016791
  C        11.0282975194        9.2915840329        7.8834489375
  H        11.2895001060        8.7147119344        7.0022116883
  H        10.1347438505        8.9246606924        8.3462517856
  H        10.8085489289       10.2413201326        7.4910069104
  H         4.2240922422        1.1505670576       12.9001360184
  C         3.6010717729        2.0148386859       12.7710680712
  H         4.3675419705        2.8319103141       12.8891180345
  C         2.9028695447        2.1436505339       11.4347529299
  C         2.6169084764        2.3574535153       13.9563472691
  C         3.8889110669        2.3594613241       10.3328273872
  H         2.1536869987        2.9720218871       11.3525437272
  H         2.2862557826        1.2108641931       11.3248126671
  H         1.8792320723        2.8718529417       13.4518859844
  H         2.9311517645        3.1408852595       14.6064218277
  H         2.1944372820        1.5284548104       14.5475511951
  C         4.5519785540        1.0180218180        9.9218518880
  H         3.4729386581        2.9063343815        9.4970013215
  H         4.6619827659        3.0140744872       10.5395653594
  C         5.3069003328        1.1994651956        8.5870350725
  H         3.8895925437        0.1468148318        9.6656936462
  H         5.2577842491        0.7201499719       10.6918227022
  C         6.5399216459        2.1203607440        8.6264493294
  H         4.7219666395        1.7365888020        7.7631261327
  H         5.6437525668        0.2640410062        8.1337613659
  C         7.8891970231        1.4326867333        9.1033405940
  H         6.7331306317        2.7968732185        7.7571059892
  H         6.3103109048        2.8233772426        9.3940586420
  C         9.0433095130        2.4840083460        9.3887549332
  H         8.2156433939        0.7406959859        8.3567454562
  H         7.7080952205        0.7622831121        9.9155422547
  C         8.6551892515        3.8353788629       10.0474507289
  C         9.4831050545        3.2060691340        8.1439804773
  C        10.2555960900        1.7609476110       10.0996209463
  C         8.7691137521        4.9193748715        9.2418616959
  C         8.4388629033        4.2430981595       11.4035997601
  C         9.2093657405        4.5145028749        7.9395857848
  C        10.0195069523        2.5241951876        7.0258716694
  H         9.8824138680        1.2214404904       10.9668491201
  H        10.6110589920        0.9486946899        9.4807705115
  C        11.4462140310        2.6331795564       10.3273645184
  S         8.2256870473        6.4062246085        9.9765216091
  C         8.0762607209        5.5804047594       11.5019036536
  H         8.3887149368        3.5586290361       12.1759884071
  C         9.6030049070        5.1884948015        6.7589841738
  H        10.1945621610        1.4387753782        7.1927789022
  C        10.2824376103        3.1320843290        5.8089694645
  H        11.2419820381        3.6219378583       10.5393249932
  H        12.0090469315        2.6734794534        9.4335450810
  C        12.4648832332        2.0884704290       11.4105058661
  C         7.5619186222        6.1918732066       12.7578537782
  C        10.1850575263        4.4688612203        5.6467474192
  H         9.3145102562        6.2489914412        6.6020439839
  C        10.6872137223        2.7035221630        4.5599657802
  H        13.4237954592        2.5949361665       11.0863049845
  H        12.7463780009        1.0726576101       11.3450054800
  C        12.1731008552        2.4243658652       12.8831722470
  C         7.3793252296        7.5979461090       13.0519009213
  C         7.2837851968        5.2928144499       13.9060822459
  C        10.6722504928        5.0810202215        4.4056386951
  C        10.8768294241        3.7609518408        3.7163273609
  S        10.9779976572        1.1567151009        3.9298705191
  H        13.0329388769        2.9131249292       13.3016964838
  H        11.3512119854        3.1282065011       12.9413305261
  C        12.0507894157        1.1385719109       13.7726958288
  N         7.5734306189        8.5451438232       12.0444570998
  C         7.1440071758        8.1532616820       14.2493199452
  C         6.7817385717        5.8592837169       15.0603862242
  H         7.3226447971        4.2599808259       13.7904744437
  C        12.0492135519        5.8763974575        4.4957460633
  C         9.5727031618        5.9625794174        3.6813540404
  C        11.2683898177        3.3252329447        2.4476080682
  C        11.2857708961        1.9550663434        2.4111765879
  H        12.9902320942        0.7104140795       13.6790114725
  H        11.2124620151        0.5542309689       13.3223729584
  C        11.7920055435        1.5096702040       15.2425657399
  S         7.4253468753       10.0812079000       12.7212238535
  N         7.1023036692        9.5678742605       14.2347979378
  C         6.8010735628        7.3242973511       15.3672692700
  H         6.6432375825        5.2123507039       15.8692324611
  H        12.0211428816        6.5977226230        5.2649910597
  H        12.2199532503        6.4782278454        3.6604538025
  C        13.3098720284        5.1532336241        4.9141030014
  H         9.2157210550        6.6419751564        4.3963969929
  H        10.0841811396        6.4955610469        2.8789452280
  C         8.3161959870        5.2829754980        3.1500446477
  H        11.5264959438        3.9634116422        1.6156901415
  C        11.5864445339        1.2542880296        1.1290871912
  H        11.2621756687        2.3799013341       15.4972087150
  H        11.2631344559        0.6697191310       15.7588447495
  C        13.1500727094        1.6511847319       15.9500849744
  C         6.5059245969        7.9866347774       16.6883235170
  H        13.0425092961        4.6181850506        5.8436211873
  H        13.6172741979        4.4856218397        4.1588967112
  C        14.3969591435        6.1941911117        5.2525138785
  H         7.8685474589        4.5325282704        3.8136587209
  H         8.5380644865        4.6898608842        2.2819120544
  C         7.2120608911        6.2329458041        2.7105907621
  C        11.7785765948       -0.1901712721        0.9912884192
  C        11.8719354546        2.0002117608       -0.0812707141
  H        13.8008116901        2.3639550318       15.4634934638
  H        13.7282697611        0.7555791214       15.8347658610
  C        13.0255901033        2.0325044227       17.4467042602
  H         6.5992866141        9.0723778860       16.6081376281
  C         6.3839186379        7.4767981593       17.9309271683
  H        14.1848555073        6.8308026084        6.1699961123
  H        14.5274978667        6.9024265370        4.4764757134
  C        15.7753635596        5.5095708937        5.4744179776
  H         6.7338783585        6.7078037558        3.5334580472
  H         7.7156728578        7.0549558243        2.3113401137
  C         6.2187070596        5.6838481974        1.7476735173
  N        11.6390376371       -1.1101678760        1.9871091851
  C        12.1514330744       -0.7909732513       -0.2096569046
  C        12.1595386197        1.4026654827       -1.2757865993
  H        11.9184767907        3.0478710856       -0.0691853707
  H        12.7260086788        3.0946061085       17.6297137054
  H        13.9323021026        1.9120542852       18.0736959870
  H        12.1892542902        1.5493652781       18.0091657074
  S         6.0410756809        5.8442609241       18.2612437247
  C         6.2379659372        8.4625316067       19.0148220714
  H        15.8973352289        4.7568998231        4.7000231612
  H        16.6368672876        6.1554136773        5.3052201608
  C        16.0370929568        4.9563017711        6.8233351456
  H         5.6172334459        4.9500346294        2.1915277385
  H         6.7799968689        5.2338441771        0.9528506702
  C         5.2378940915        6.8557964860        1.1917496897
  S        11.6991324526       -2.6525817001        1.3228052310
  N        12.3129497451       -2.1763832066       -0.0894152169
  C        12.4018458930       -0.0753841037       -1.3631799898
  H        12.3983230868        2.0033964060       -2.1524447368
  C         5.8907576632        6.3666693171       19.9836751167
  N         5.9278053256        7.7439287471       20.0912540073
  O         6.2142489023        9.7026450970       18.9268234536
  H        15.6839543144        5.6140582564        7.6516529156
  H        15.4001426006        4.0675481779        7.0204191193
  C        17.5176952692        4.6252199542        6.9852385640
  H         5.8161667701        7.6284847419        0.6689521216
  H         4.5827488605        6.4604886029        0.4370156307
  C         4.1821023375        7.3822454476        2.2133124163
  C        12.6652438120       -0.8350853987       -2.5800956364
  S         5.3310256409        5.4161406850       21.2270409273
  C         5.9274629269        8.4021768419       21.4168813071
  H        17.7198139541        3.9375219079        7.8194512858
  H        17.8503785930        4.0505725436        6.1302579115
  C        18.4844773688        5.7209056591        7.3131978864
  H         4.7134458476        7.8726647650        3.0595338119
  H         3.6502103721        6.5668235420        2.6827211549
  C         3.1514475219        8.3626726132        1.5291681332
  H        12.6274736543       -1.9204258601       -2.3462599225
  C        13.1705492390       -0.4713666603       -3.7963156120
  H         5.1413666160        8.0796612589       22.1197235713
  H         5.6785332037        9.4782650679       21.2581585439
  C         7.2581281527        8.3796041452       22.1274411926
  H        18.8913917679        5.6646327345        8.3297527508
  H        17.9268696117        6.7113017652        7.2514567432
  C        19.6448156309        5.8299609131        6.2605522196
  H         2.6112650573        7.7765357577        0.7877447226
  H         2.4262768138        8.7614048767        2.3059901605
  C         3.8397433969        9.5295683748        0.8993501971
  S        13.6766464831        1.1118022531       -4.3455606419
  C        13.3609241125       -1.5672607999       -4.7769414464
  H         7.9580006617        7.8655761071       21.5249218307
  H         7.1850853107        8.0557283667       23.1918474167
  H         7.5688912133        9.4210893030       22.2204063379
  H        19.1329688065        5.9289566278        5.3063764285
  H        20.3598347691        6.6156315783        6.3877949763
  H        20.3348726041        4.9645396431        6.1873834326
  H         3.8348423647        9.2435694009       -0.1547041034
  H         3.2351930884       10.4273899670        0.9527230298
  H         4.8635441454        9.7086768919        1.2308447409
  C        13.8875542077        0.3336083885       -5.9507290818
  N        13.8345143591       -1.0372407176       -5.9364445034
  O        13.1700709915       -2.7518428532       -4.6204378622
  S        14.5219496826        1.1445041756       -7.3966821724
  C        14.0164363937       -1.7537791522       -7.2356744020
  H        14.0151769192       -2.8174634922       -6.9966062762
  H        15.0475407980       -1.5532442823       -7.6672450002
  C        12.9156679588       -1.7748690996       -8.3333384557
  H        13.0789536987       -0.9756011071       -8.9566402107
  H        11.9596323113       -1.7222235802       -7.7957472947
  H        12.9925624334       -2.6602551458       -9.0047288943
