352
 i =    58000, time =    29000.000, E =        98.9841862351
  H         9.5304284347        4.1962820089       31.0373981684
  C         9.6857380981        5.0741310482       31.6373620626
  H         8.7431411032        5.5561846603       31.7831165794
  C        10.4250125048        6.0550619293       30.7674718241
  C        10.3958396468        4.6776564164       32.9541496069
  C        11.1033047638        5.3456729981       29.5954982392
  H         9.7582058864        6.7591432449       30.4990528152
  H        11.0999791502        6.5706627172       31.4491683249
  H         9.9834337965        3.7158673209       33.2170996537
  H        11.4608744502        4.7931396632       33.0987666762
  H        10.0751412404        5.2404910048       33.8525466227
  C        10.2043206183        4.8042767815       28.4660909920
  H        11.7491251696        4.5454258282       30.0250951779
  H        11.7718752599        6.0710773129       29.0326316660
  C        10.5007000376        5.2246949532       27.0462810192
  H        10.0969034606        3.6869254406       28.5631234513
  H         9.2846610324        5.2734865769       28.6864411999
  C         9.4660836846        4.6740693503       26.0502496016
  H        11.5118209499        4.8867067747       26.7871451279
  H        10.6105626563        6.3331869388       27.1131497788
  C         8.1954979834        5.4648491541       26.1488706764
  H         9.7971270451        4.5816497703       24.9540125981
  H         9.3215330620        3.5948995850       26.3340574157
  C         6.9205167487        4.8830314056       25.5492113512
  H         7.9818593149        5.8012786043       27.1132448622
  H         8.2660933295        6.4072190168       25.5948478342
  C         6.5764479446        3.5501550962       26.2409793106
  C         7.2435879038        4.2122959866       24.2507872403
  C         5.6878390127        5.8243528778       25.4293452908
  C         6.6798990891        2.5028087910       25.3884780054
  C         6.0148533065        3.1913387247       27.4508643156
  C         7.1744981309        2.8784778945       24.1785513058
  C         7.7089897443        4.8515944805       23.0805327671
  H         6.0291550467        6.6748302337       24.7113244676
  H         5.5582697993        6.1643815879       26.3934445538
  C         4.4453643160        5.2147578414       24.8797537674
  S         6.2118582288        0.9939862457       26.0650848443
  C         5.8426958184        1.8267065230       27.4875368004
  H         5.9101737565        3.9620686660       28.0841500158
  C         7.3734289575        2.2517627685       22.9973891090
  H         7.7794928840        5.9128484045       23.0240931275
  C         8.0343456613        4.2006896591       21.8950774752
  H         4.5367886975        5.0129336259       23.7534440589
  H         4.2134399807        4.2154227631       25.2684962829
  C         3.1595459978        6.0435675803       25.0958360154
  C         5.3902658301        1.0221652748       28.6961629897
  C         7.8963253076        2.8590338674       21.8138070547
  H         7.2126531181        1.2498424183       22.9089621686
  C         8.3728771686        4.5993562863       20.6329223878
  H         2.4214176229        5.8192767457       24.3211328489
  H         3.4257852219        7.0961608387       25.0470967538
  C         2.6067166066        5.8843744396       26.5205020422
  C         5.4983358053       -0.3035876191       28.9595225814
  C         5.0111205743        1.8550491499       29.9063326728
  C         8.2211535130        2.1894794933       20.5052311213
  C         8.5658629497        3.4954728480       19.8059673827
  S         8.6714459506        6.1545247643       19.9132313263
  H         2.4745905364        6.8395688650       27.0588793386
  H         3.4691631842        5.6302848996       27.1145953732
  C         1.5058035664        4.9173935151       26.8766088883
  N         5.9305344692       -1.2754491053       28.0272085146
  C         5.1914404037       -0.8898397986       30.1820252883
  C         4.7286099839        1.3552195554       31.1630616295
  H         4.8453362069        2.8668070164       29.7192247091
  C         7.0447422134        1.4477507366       19.9320951155
  C         9.5278816077        1.3424555138       20.7159039447
  C         9.0244960537        3.9450008079       18.5466723940
  C         9.0843696224        5.3107965067       18.5080094848
  H         0.7041137533        4.7630761044       26.1129026996
  H         1.9890587121        3.9512740806       26.7693263352
  C         0.9162829845        5.2579412340       28.3043841303
  S         5.9753509076       -2.7085080426       28.7018670453
  N         5.2880116132       -2.2572988954       30.1236870849
  C         4.8490853762       -0.1551214722       31.2949984505
  H         4.4421623982        2.0007244739       31.9637892192
  H         6.8679959916        0.6114216103       20.6549921061
  H         7.2905939913        0.9633687761       18.9848553453
  C         5.7281832945        2.1928249952       19.5751477921
  H         9.9053501668        0.9849992556       19.7499180289
  H         9.0996081801        0.5790471126       21.3521327022
  C        10.6905836210        2.0941921622       21.4004262256
  H         9.2612369248        3.2112397382       17.8065534869
  C         9.6096486158        6.0633055771       17.3306482771
  H         0.0816013286        4.5232479832       28.4191708830
  H         0.5719958356        6.2103905115       28.3765290607
  C         1.8752242494        4.9054314363       29.4319482454
  C         4.4796967319       -0.8475646873       32.5282134701
  H         5.8689900676        2.9761354702       18.8439638592
  H         5.4519501828        2.7131941389       20.5066118687
  C         4.6510899462        1.2268387923       19.1924541008
  H        10.4167438807        2.3457223112       22.4039462068
  H        10.8871357641        3.0013753412       20.8655801625
  C        12.0581705493        1.4079586464       21.4790487601
  C         9.7741732966        7.4894205096       17.1983613767
  C        10.0178154381        5.2162042687       16.1708070691
  H         2.2814467821        3.9808583250       29.2582506859
  H         2.6521999071        5.6372302334       29.3683078269
  C         1.1158955854        5.0107186144       30.7072554448
  H         4.2818965852       -1.8982017193       32.4760023921
  C         4.2387694787       -0.3668395728       33.8254408176
  H         4.2893362760        0.7012057103       20.0604642540
  H         5.0449678315        0.5283173854       18.5136166020
  C         3.4698348510        1.8931514410       18.5143331410
  H        11.8304875064        0.6695695163       22.2236113177
  H        12.4540425836        1.0487731000       20.5375065093
  C        13.0664333951        2.3810791794       22.0861528764
  N         9.4367562197        8.4620706416       18.1398476376
  C        10.1058997371        8.1140005992       15.9859877680
  C        10.3928499432        5.8862354129       14.9837882819
  H         9.9992705811        4.1300346775       16.2225175040
  H         1.8587557884        5.1867194330       31.4914214984
  H         0.3953618642        5.8309741254       30.8205155948
  H         0.5475946306        4.1221001102       31.1370750801
  S         4.1812102434        1.2002162271       34.4008212647
  C         4.1333582080       -1.3803227359       34.9281478446
  H         3.3813348381        2.8355973816       19.0691699632
  H         3.7439864713        2.1440959429       17.4903011932
  C         2.1330367636        1.1339806470       18.5500698617
  H        12.6622538631        2.7210917909       23.0641850957
  H        13.1956843353        3.2530361003       21.4671690360
  C        14.3877150263        1.6747051519       22.3484298509
  S         9.6135130209        9.9301379038       17.4087464551
  N        10.0695700159        9.5098019622       15.9517776802
  C        10.3801462029        7.3772464583       14.8190684444
  H        10.7046039605        5.3359206737       14.0929695176
  C         3.9405358986        0.6180786165       36.0767851445
  N         3.9013848281       -0.7700876003       36.1150262094
  O         4.2654651879       -2.5914447403       34.7076053162
  H         1.3243608750        1.7473989273       18.1174920033
  H         1.8533944502        0.9986157319       19.6029278929
  C         2.1383550709       -0.1252383030       17.7419232058
  H        14.2887164112        1.1039817776       23.2710333361
  H        14.6297402992        0.9441259109       21.5892402095
  C        15.4745959597        2.7921629772       22.4375695910
  C        10.6822909480        8.0207932893       13.6673858500
  S         3.5234440631        1.5030856382       37.5745286647
  C         3.8429273109       -1.5997597278       37.3770247407
  H         1.6754074796        0.0965314506       16.8115618198
  H         3.1138758815       -0.6037740024       17.4866530679
  C         1.3476953486       -1.2185786107       18.4288509120
  H        15.2233740482        3.3961766615       23.3355085904
  H        15.3049712717        3.3318596749       21.5551269264
  C        16.9920441212        2.3641673323       22.3726954090
  H        10.2786433119        8.9813610689       13.5270960316
  C        11.2273976793        7.6826482343       12.4327105985
  H         3.0912419242       -1.2160780176       38.0738035539
  H         3.5729142058       -2.5662068831       36.9752757125
  C         5.2064105695       -1.6672844294       38.1111261634
  H         0.3343272839       -0.8270237192       18.7675707496
  H         1.9564832900       -1.6509937238       19.2804371950
  C         1.2117164442       -2.2798413089       17.3586030392
  H        17.0995436053        1.6326080085       21.6159941780
  H        17.6536224952        3.2168790526       22.1596818196
  C        17.3922486907        1.6954880621       23.6375805420
  S        11.8804838104        6.1585057395       11.8773851748
  C        11.2852798127        8.7378619405       11.4707726104
  H         5.4640246276       -2.4247761368       38.8408520552
  H         6.0052658516       -1.8379303323       37.3126970853
  H         5.3776462867       -0.7025448870       38.6067547470
  H         0.7244500703       -3.1576642621       17.8341663586
  H         2.2030922613       -2.7149414473       17.0949805506
  H         0.6655572865       -1.9527232070       16.4107246520
  H        18.5261522482        1.6367063967       23.6873735525
  H        17.0014676847        0.6758859738       23.6573903438
  H        17.0003268780        2.1320298593       24.4994593828
  C        12.1277683557        6.9948718952       10.3568439599
  N        11.8125922346        8.2966380942       10.3247421377
  O        10.9778035265        9.9043134675       11.6264027002
  S        12.9927263236        6.3639889039        8.9805523925
  C        11.8300688261        9.2453958863        9.2399775791
  H        12.4098364154       10.1258360028        9.3941498237
  H        12.3113416423        8.7253395972        8.4782015605
  C        10.3303699562        9.4152852758        8.6733203921
  H        10.0121801110       10.3132273058        9.0924184885
  H        10.3419702552        9.4642402212        7.6003543312
  H         9.6072647341        8.6290484025        8.9381828873
  H         4.4835275845        1.6871928692       12.6400659023
  C         3.4256555322        2.1008956855       12.6784260341
  H         3.5239062124        3.1591433716       13.0063174796
  C         2.8813305892        2.0142870560       11.2136872229
  C         2.4581801167        1.5048854621       13.6608887995
  C         3.7823013244        2.5692081429       10.0907904566
  H         2.0091268797        2.5431085359       11.1471405401
  H         2.6967888621        1.0103188364       10.8646434403
  H         1.5794307112        1.0435813374       13.2615752599
  H         2.1819414575        2.2346441483       14.3717435434
  H         3.0974746346        0.8138943597       14.3039648479
  C         4.6004541695        1.4438564462        9.3805388149
  H         3.1911366154        3.1959496511        9.4060588648
  H         4.4473019379        3.2951683725       10.5447775658
  C         5.4748024928        1.6603451336        8.1730187704
  H         3.8534221417        0.7959562584        9.0473934723
  H         5.1987336551        0.8291792168       10.0848131400
  C         6.6775903933        2.5220792551        8.5019287441
  H         4.7548136118        2.1497973519        7.4922672125
  H         5.7761422135        0.7770399541        7.6367698571
  C         7.9252744468        1.8391177717        9.0985978743
  H         6.8202217688        3.0304175244        7.5805824903
  H         6.2876047035        3.2849458304        9.1937860003
  C         9.1373845753        2.6501282968        9.3659797147
  H         8.2458579037        1.0612741778        8.2995208431
  H         7.5710466239        1.3659013932        9.9773887266
  C         8.7420271405        3.9984773653       10.0662115691
  C         9.6052817724        3.3967874502        8.1587611906
  C        10.2573982351        1.9162918774       10.1254257682
  C         8.9946776738        5.0923480654        9.2624008914
  C         8.1667954016        4.3012700613       11.3075619799
  C         9.5731403888        4.7345055445        8.0655815898
  C        10.0578892113        2.7064017684        7.0079970715
  H         9.7604004553        1.5175373753       11.0347682368
  H        10.4064004817        1.0221640432        9.6168874831
  C        11.5360583779        2.7460202916       10.4048195516
  S         8.4282269761        6.5470177971        9.9880712855
  C         7.9575643257        5.6630237034       11.3940488397
  H         7.7888053089        3.5649512134       11.9794226163
  C         9.9708263772        5.3435415256        6.9130308000
  H        10.0417617136        1.6235574874        7.0195317058
  C        10.4250559794        3.3790786966        5.8660395647
  H        11.4007387857        3.6744499847       10.9055507038
  H        12.1048790194        2.8954238181        9.4829892200
  C        12.4169171865        2.1094872148       11.3781826431
  C         7.4311159700        6.3629815012       12.6316098754
  C        10.3465970705        4.6996216631        5.7343487817
  H         9.9792358921        6.4349808619        6.7966360527
  C        10.7612931874        2.9714677455        4.5607615727
  H        13.4196104474        2.4542981924       11.1611970804
  H        12.3607321041        1.0074154785       11.3697911079
  C        12.0023107877        2.7066154079       12.7408207256
  C         7.4148537276        7.7312227847       12.9131153202
  C         6.9625597040        5.5055958331       13.7922523975
  C        10.7096744643        5.3757123306        4.4898470197
  C        11.0209235623        4.0546801587        3.7411876522
  S        11.0515128398        1.3956013882        3.9036233752
  H        12.6084293827        3.6824718038       12.9965915166
  H        10.9300781267        3.0857835412       12.8096985847
  C        12.2304647251        1.7915515019       13.9477764900
  N         7.6721752394        8.7212778334       11.9445694336
  C         7.1523067366        8.2412352877       14.1563037694
  C         6.6676592876        6.0367254448       15.0322929141
  H         6.7128329370        4.4877283193       13.6117727048
  C        11.9994841640        6.2295558181        4.4201859936
  C         9.5030487062        6.1237998667        3.8521156126
  C        11.4897508090        3.5763991035        2.5293049000
  C        11.4961152741        2.2152630171        2.4674592893
  H        13.2737904532        1.3280523146       13.9457068237
  H        11.7635317080        0.7672941137       13.8872465265
  C        11.8325219946        2.3020797380       15.2935478824
  S         7.7601171864       10.1544306596       12.7024301741
  N         7.2613297082        9.6265587123       14.1537820541
  C         6.7116724632        7.4918895472       15.2503909205
  H         6.2289648380        5.4040523499       15.8005805881
  H        11.8017596675        6.9693242805        5.1222825517
  H        12.2379618529        6.7693246380        3.4377880005
  C        13.3256156746        5.5966201970        4.9729856246
  H         9.2306828999        6.9580210444        4.5217486910
  H         9.8313144794        6.5742977297        2.9756445584
  C         8.3039686412        5.2679949322        3.6233129665
  H        11.7248552920        4.2591627224        1.7728844085
  C        11.8193487163        1.4715064032        1.2074136931
  H        11.8848175627        3.3997789513       15.2326674671
  H        10.7814948391        2.0368177540       15.4879021749
  C        12.6549266264        1.7219828281       16.4724765345
  C         6.5010926581        8.1647961146       16.4952083618
  H        13.1487772474        5.0281081819        5.8993686959
  H        13.7637628181        4.8699698150        4.2254366318
  C        14.4700198495        6.5276840013        5.3098790127
  H         7.9398697692        4.8997200707        4.5776409848
  H         8.6325140800        4.4846909726        3.0149902914
  C         7.1361504970        6.1136698030        2.9900468399
  C        11.7802234511        0.1176138270        0.9254129267
  C        12.1346952282        2.2875644108        0.0186183183
  H        13.6793513898        1.9309653591       16.3537694075
  H        12.5588790466        0.6065526396       16.6082158363
  C        12.0984564592        2.2003221722       17.7859792816
  H         6.8127610824        9.1890002412       16.4910434700
  C         6.1156214725        7.7659894455       17.7126202136
  H        14.3029473392        7.1699053775        6.1823486504
  H        14.6224625287        7.2782311413        4.5198279388
  C        15.8093723505        5.6895154570        5.6016704750
  H         6.8468013197        6.8950711005        3.6615754774
  H         7.5418513589        6.5771080411        2.0638539112
  C         5.9606465151        5.1909674067        2.5264735598
  N        11.5385566845       -0.7917659325        1.8680042689
  C        12.0778782781       -0.4636455961       -0.2927548978
  C        12.4644434705        1.6986206753       -1.1927076416
  H        12.0231406909        3.3633350051        0.1252923454
  H        11.6154363899        3.2358580311       17.8213719775
  H        12.8996659210        2.1808627293       18.5624648584
  H        11.3090565982        1.5110366249       18.1564523792
  S         5.7937536152        6.1638169846       18.2285028306
  C         6.0876838071        8.7769568673       18.7721107856
  H        15.7071749639        4.6631680919        5.3092021048
  H        16.6350731641        6.1434270689        4.8830944708
  C        16.2521426776        5.7773747472        7.0539359723
  H         5.5888937294        4.5288626556        3.3328084164
  H         6.3879819877        4.4873457122        1.8247558494
  C         4.8488835443        5.9984298277        1.8707850220
  S        11.5186149467       -2.2813769175        1.2574289836
  N        11.9516464263       -1.8586929661       -0.2502528679
  C        12.4639858306        0.2495369313       -1.4255362509
  H        12.7429771043        2.3095331889       -2.0232262125
  C         5.5617909080        6.8335488944       19.8392155320
  N         5.6935761708        8.1603210983       19.8746543922
  O         6.1957287448       10.0181782055       18.6767990761
  H        16.3497178607        6.7652337383        7.3736036943
  H        15.3655227275        5.3516131278        7.6404262043
  C        17.4879285270        4.9393902817        7.4489729413
  H         5.3727474940        6.6291981915        1.2120944327
  H         4.2116546363        5.3457099729        1.3218318756
  C         4.1563263172        6.9098610622        2.8868657744
  C        12.7096107014       -0.4519414690       -2.6317046194
  S         5.1647709909        5.9618047858       21.3097326098
  C         5.6280061166        8.8966016766       21.1605982615
  H        17.3270796377        4.5216607962        8.4381799062
  H        17.6849863653        4.0767064406        6.8500155442
  C        18.8671345781        5.6230276653        7.4865577118
  H         4.5267042906        6.9397077440        3.9233679979
  H         3.1204819142        6.5728423926        3.0711898147
  C         4.1650612568        8.3483194142        2.3657456421
  H        12.8474068356       -1.5480411248       -2.4405635766
  C        13.1339893481       -0.1112974692       -3.8539697136
  H         4.8440743587        8.5643676825       21.8633723615
  H         5.4121067612        9.9378859333       20.9210411345
  C         7.0365200596        8.9042297579       21.7461127293
  H        19.4771189090        5.0717938837        8.2158699240
  H        18.7240567457        6.6013225452        7.9126700847
  C        19.5936651160        5.6187001879        6.1653869823
  H         3.8010652881        9.0394028421        3.1491823336
  H         5.1840476151        8.6616337117        2.1278804089
  C         3.2541466940        8.4720144640        1.1674197773
  S        13.5111839647        1.5191444729       -4.4378545183
  C        13.2158706990       -1.2283002054       -4.8712956422
  H         7.2115387151        8.1081932864       22.4250649096
  H         7.1392337467        9.7224953667       22.4241782936
  H         7.8374662386        9.0876559018       21.0123534514
  H        18.8695842480        5.3903135594        5.3204115078
  H        20.0869373635        6.5302961596        5.8963978320
  H        20.1991607071        4.7609616029        6.1974033131
  H         3.0395641052        9.5446294418        1.0597012580
  H         3.7678717815        8.1098368656        0.2754900141
  H         2.3330969466        7.9180503766        1.2909375783
  C        13.7307822517        0.6468099215       -6.0130914355
  N        13.6230678973       -0.7032847212       -6.0280603711
  O        12.9218971977       -2.3960533216       -4.5902751642
  S        14.4191824353        1.4123068747       -7.3625380627
  C        13.7602638431       -1.5778812906       -7.1899826528
  H        13.9945772077       -2.5704629704       -6.7795365480
  H        14.4565767714       -1.1901362065       -7.9669343614
  C        12.5301503057       -1.8138350736       -8.0272507940
  H        12.3900757720       -0.8948112440       -8.5363223549
  H        11.6285603004       -2.0858885181       -7.4632554392
  H        12.7549410003       -2.5446961820       -8.8316065247
