352
 i =    24400, time =    12200.000, E =        95.9936647567
  H        10.5651521213        4.7559893027       31.6397328706
  C        10.4654099149        5.6124781824       32.2683508488
  H         9.3454575702        5.8418902371       32.4314149721
  C        10.9556841889        6.6553357212       31.3370682971
  C        11.3699498247        5.4591681573       33.4807056003
  C        11.4559525553        6.1791204607       29.9100337335
  H         9.9991521769        7.2870642632       31.3132281458
  H        11.7558655841        7.2132651189       31.8269565674
  H        11.0585395312        4.6218553081       34.1205922090
  H        12.3275350861        5.3294147687       33.1143025075
  H        11.2352163532        6.3064744470       34.0624157839
  C        10.2461444449        5.7262125046       28.9699777930
  H        12.2653410628        5.4279202452       29.9660127982
  H        12.0072989355        7.0299417660       29.5142767419
  C        10.6247533325        5.6952637270       27.4701255182
  H         9.8357687736        4.7729161773       29.3587751706
  H         9.4098882513        6.3447629531       29.0996420280
  C         9.7617266675        4.9907726036       26.4209153716
  H        11.6163014511        5.1062551233       27.4145708566
  H        10.8710835468        6.6923657193       27.1040249923
  C         8.5708933646        5.9153704559       26.0087218576
  H        10.4102776005        4.5535831605       25.6571394812
  H         9.4400141654        4.1273879579       26.9294925447
  C         7.3885488735        5.1463511681       25.2564898385
  H         8.0974869710        6.3070079900       26.8898553975
  H         8.9160095065        6.7444126257       25.3267364149
  C         7.1424604133        3.7499595000       25.9894093921
  C         7.7731050107        4.3738661623       24.0393082928
  C         6.0924625505        6.0026930820       25.1320478782
  C         7.4053383544        2.6454068512       25.2169971142
  C         6.7075177064        3.4293055018       27.2499808421
  C         7.8386384688        2.9833252372       23.9457841873
  C         8.1858868547        4.9677391381       22.8152532473
  H         6.2540703993        6.7303565912       24.3126686922
  H         5.9649083325        6.5739951975       26.0453361395
  C         4.8282477022        5.2197565119       24.7207297492
  S         6.9910780212        1.1640443507       25.9425179280
  C         6.5734595386        2.0563703818       27.3747853922
  H         6.4846457533        4.2184838695       28.0023499299
  C         8.1619995806        2.3158609217       22.7908710920
  H         8.2465689789        6.0486066958       22.7457996457
  C         8.4972079328        4.2909228893       21.6749456662
  H         5.1315265475        4.7135274413       23.8178140615
  H         4.7185401673        4.6358783573       25.6359042123
  C         3.5987629365        6.1163665695       24.4160434236
  C         6.3241936084        1.3398067081       28.6917987302
  C         8.5924441393        2.9569066035       21.6303832845
  H         8.0453054494        1.2566219929       22.7019911270
  C         8.9617886562        4.6754805250       20.4324634856
  H         2.7543775594        5.6559737933       23.7370025066
  H         3.9547460248        6.8801119410       23.6911644962
  C         2.9561135089        6.6998445440       25.6922557752
  C         6.2416853509       -0.0582952085       28.8647252344
  C         5.8202589672        2.2058684069       29.8264150115
  C         8.9192028774        2.2574371217       20.3237335489
  C         9.2261396569        3.5963854432       19.6401935903
  S         9.1768592064        6.1617723142       19.6689140122
  H         2.1554495272        7.4358333693       25.3804821844
  H         3.6765624205        7.3083377692       26.2544758402
  C         2.2555651376        5.6204487117       26.5502941319
  N         6.6393740789       -0.9920497357       27.9286204968
  C         5.8821269426       -0.6340342632       30.0549246909
  C         5.4455386681        1.6271052052       30.9576457598
  H         5.7232768077        3.2903633081       29.7606234116
  C         7.6850146594        1.5546849650       19.6523757616
  C        10.1698701536        1.3451641280       20.4526939682
  C         9.7112810328        3.9345544595       18.3371772144
  C         9.6948215292        5.3143522861       18.2358655087
  H         1.5145709246        5.0439566862       25.9526758711
  H         3.0382054805        4.8939797081       26.9118998967
  C         1.5419316419        6.1282461232       27.7563847606
  S         6.6133904819       -2.4264211457       28.5104616146
  N         6.1621491246       -1.9762736687       29.9842354207
  C         5.5607352344        0.1301319305       31.2328149811
  H         5.1449709194        2.2476477938       31.7418234225
  H         7.2835391447        0.8667454445       20.3232992021
  H         8.0058269162        0.9024502538       18.8575131087
  C         6.5064289186        2.4337080569       19.2608632473
  H        10.4333720167        1.0853052872       19.4430077583
  H         9.9078723336        0.5165717380       21.0069949645
  C        11.3678535261        2.1212487691       21.1039666268
  H         9.9103891100        3.1957208561       17.5999400153
  C        10.0070660398        5.9969348317       16.9252102076
  H         0.6148477037        6.4946783538       27.4251334252
  H         2.2421230711        6.8272871384       28.0931289873
  C         1.3975900744        5.1485717327       28.9346042033
  C         5.2905461269       -0.5029901563       32.4655768482
  H         6.7180707187        2.8364583647       18.2150964032
  H         6.4805829845        3.2160644754       20.0350890648
  C         5.2147261362        1.6401844264       19.2477762030
  H        10.9615904680        2.4741338987       22.0205193937
  H        11.6015653397        2.9911900625       20.5734859962
  C        12.7016156568        1.3790171723       21.3535233982
  C        10.0689629244        7.4301106348       16.7393653178
  C        10.2667260261        5.2239381026       15.6545667309
  H         0.7532965759        4.3495101433       28.6664833094
  H         2.3329011856        4.6241032796       29.1000248190
  C         0.8651561149        5.9387855778       30.1230233222
  H         5.1337879310       -1.5470615813       32.4331708360
  C         4.8897517342       -0.0412706547       33.7246402856
  H         5.0678651380        1.2319213170       20.3047346905
  H         5.3739788289        0.7383393946       18.6663237664
  C         4.0040642330        2.3193121005       18.5515837235
  H        12.4111483059        0.7193726042       22.1684949243
  H        13.0939729300        0.8219893772       20.4915176315
  C        13.8835818662        2.2351766131       21.7272933208
  N         9.9345339029        8.3501889217       17.7537343230
  C        10.3724480087        8.0858668001       15.4876127428
  C        10.5998807453        5.8692524177       14.4555938145
  H        10.0399648733        4.1436532482       15.6224545772
  H        -0.1102766401        6.4783711067       29.8589255351
  H         0.5268481479        5.2848879155       30.9320734438
  H         1.7054026568        6.5871006522       30.5233455501
  S         4.8404989991        1.5326534341       34.3199479206
  C         4.5904498351       -1.1090131952       34.7145683392
  H         3.7456989610        3.1783027845       19.1698008982
  H         4.2533706941        2.6681640559       17.5873651323
  C         2.7522320259        1.4825937520       18.4663985855
  H        13.4821664931        2.9999078078       22.3277399657
  H        14.3181149614        2.8420966687       20.9051208375
  C        14.8216100933        1.6755450053       22.8074054902
  S        10.0061584302        9.8343331310       17.0928573238
  N        10.4052683789        9.4477285452       15.5903908683
  C        10.6315919303        7.3308257622       14.3121920092
  H        10.6778502453        5.2199927915       13.5646146394
  C         4.3249491732        0.8311570822       35.8293596596
  N         4.2612177945       -0.5118295207       35.8936290045
  O         4.7224567504       -2.3415352753       34.5993568642
  H         1.9642035297        2.1920487967       18.2131878814
  H         2.4376685237        1.3109745073       19.4916993882
  C         2.9132726141        0.1656504716       17.6025204352
  H        14.1611743931        1.4293656081       23.6099164052
  H        15.3453236436        0.8057810367       22.3899603622
  C        15.8767635776        2.7413398776       23.2497451117
  C        10.8896536270        8.0182769041       13.1263691163
  S         3.9649752993        1.7090692860       37.3248109546
  C         4.3994833174       -1.3731023492       37.1803235219
  H         2.5158041914        0.2554538578       16.5735244084
  H         3.8819323197        0.0674966506       17.3214726969
  C         2.2887576752       -1.0407302980       18.2874411119
  H        15.3128106745        3.3209307026       23.9955756002
  H        16.1516841965        3.4717186268       22.5025734029
  C        17.0160277919        2.0535889365       24.0010087965
  H        10.3999484704        8.9438548785       13.1228401748
  C        11.4973024350        7.8613601696       11.9049660622
  H         3.7837337379       -0.7982714080       37.9330895755
  H         4.0690011929       -2.4102859216       37.0974645018
  C         5.9087618003       -1.4593378066       37.6862556399
  H         1.2128472433       -1.0937114980       18.2244690539
  H         2.4916102994       -1.0982609367       19.3090399028
  C         2.7244958342       -2.3035849519       17.4497496230
  H        17.2470987764        2.6555628506       24.8440082758
  H        16.6929713324        1.0509640496       24.3063546547
  C        18.1998681681        1.8884262596       23.0029847111
  S        12.2834823139        6.4401864066       11.4593526172
  C        11.4112042722        9.0342667915       10.9451174716
  H         6.0931809529       -2.5036788927       37.8826463102
  H         6.6082730039       -1.0286220094       36.9638937192
  H         6.0942464484       -0.9832437419       38.6309545820
  H         2.3531590516       -3.1955196976       17.9213494637
  H         3.8488790508       -2.3026255095       17.3280413967
  H         2.3617587389       -2.3169928540       16.4229536689
  H        17.8513342168        1.1556291241       22.2957261043
  H        19.0174405109        1.3969686555       23.5408326720
  H        18.4009510762        2.9041037784       22.5933508327
  C        12.6520522995        7.3104676154        9.9719651739
  N        12.2452373990        8.6411648280        9.9321824263
  O        10.8629528560       10.1220101599       11.1002510500
  S        13.2469085251        6.6667678519        8.4556802503
  C        12.3040958729        9.4402868626        8.7522730674
  H        12.4477417511       10.4758389426        8.8896027989
  H        13.1445579507        9.1933775921        8.1021408391
  C        10.9697080840        9.1791453826        7.9813950129
  H        11.1477839543        9.1698245333        6.9012904393
  H        10.3016659124        8.3440430980        8.3413524333
  H        10.2747636977       10.0177920850        7.9946489357
  H         4.9711356411        1.4442189897       12.9062347802
  C         4.2890391417        2.2720406961       12.9069594358
  H         4.8870123436        3.1938317992       12.9122016484
  C         3.4089764541        2.2164789129       11.6588537907
  C         3.5718917871        2.1485656361       14.2523352667
  C         4.1474066708        2.6742223836       10.3725416600
  H         2.6522301036        2.9646362404       11.6673578184
  H         3.0061010944        1.2160543255       11.5709944407
  H         2.9744959359        1.1861669743       14.2703943338
  H         2.8883332773        2.9767075140       14.3589126487
  H         4.3166066744        2.1864626615       15.0387545423
  C         4.9924477152        1.4629536052        9.7988190199
  H         3.4931167704        3.1956923746        9.6642651881
  H         4.9250966579        3.4527288110       10.5604050438
  C         5.5083510314        1.6761017505        8.3039359945
  H         4.4383841865        0.5569093161        9.9045852414
  H         5.8676083093        1.2250465988       10.4027743568
  C         6.7372329359        2.4823086543        8.3348979008
  H         4.7696869750        2.1668401522        7.7384918135
  H         5.6539651558        0.7484297946        7.8240551908
  C         8.0293926538        1.7525579507        8.7976438635
  H         6.9671324808        2.9692773817        7.3536939425
  H         6.5059044809        3.3200941355        8.9312523450
  C         9.2329253341        2.6612221498        9.0111851757
  H         8.3371013208        0.9234568770        8.1223222049
  H         7.9116516327        1.1521498555        9.7591538594
  C         8.7761209996        3.9825118331        9.7024585843
  C         9.6640962954        3.4759531964        7.7934413004
  C        10.4146358539        1.9843303570        9.7912647995
  C         9.0715384057        5.1374481449        8.9878679919
  C         8.2149290691        4.3180035519       10.9772864483
  C         9.5634281687        4.8690142275        7.7386391757
  C        10.1611591788        2.8957271381        6.6535418064
  H        10.0707257190        1.6285661945       10.8136886442
  H        10.8020671177        1.2004362838        9.1900351115
  C        11.5970764176        2.9559473044       10.0472248875
  S         8.8026383478        6.5846821564        9.8646493136
  C         8.1876898105        5.6401112518       11.2250890905
  H         8.0921173884        3.5781818937       11.7381842678
  C         9.8938353636        5.5788295285        6.5729345003
  H        10.1265595005        1.8109066266        6.6452262226
  C        10.4678988707        3.5814320153        5.5529294042
  H        11.2361483339        3.8244499787       10.6042535795
  H        12.1291819141        3.1736721147        9.1232017141
  C        12.6910807248        2.3096156033       10.9587038688
  C         7.7333113886        6.3197910344       12.4876338619
  C        10.3530676873        4.9330278213        5.4411684465
  H         9.8086092569        6.6614461981        6.6074066124
  C        10.7973957650        3.1466035682        4.3311453399
  H        13.6117267772        2.8934248596       10.9524324992
  H        12.9953574644        1.3204182107       10.5905160395
  C        12.2568155474        2.2167349590       12.4411153984
  C         7.6632453037        7.7234806063       12.7059535923
  C         7.3197968306        5.4937442394       13.6621707871
  C        10.8545251655        5.6042052819        4.1592728288
  C        11.0161307970        4.1963757776        3.4502442193
  S        11.1853233521        1.5895184070        3.7056233784
  H        11.9760800786        3.1777606740       12.8360206581
  H        11.2735998102        1.6674701270       12.4294447141
  C        13.2967822516        1.6034731734       13.3308720556
  N         7.8787572469        8.7570887605       11.7009785270
  C         7.2811902433        8.3102736687       13.9201689985
  C         6.9786581474        6.1073147913       14.8619830467
  H         7.2506156480        4.4249776354       13.6681492725
  C        12.2596714544        6.2770008095        4.2587796692
  C         9.7733896407        6.3989265623        3.4403935137
  C        11.3649668457        3.7089043695        2.1675311533
  C        11.4760737453        2.3412393339        2.1799329749
  H        13.9914151319        2.4385028357       13.5647567046
  H        14.0354844631        0.9761006161       12.8618800550
  C        12.8613975363        0.8836084196       14.5998305353
  S         7.8375104486       10.2567370363       12.4187711143
  N         7.3901736863        9.6800073214       13.8835458197
  C         6.9355682660        7.5531701362       15.0506499445
  H         6.6514990899        5.6162660729       15.7476560035
  H        12.2456907831        7.1001978843        4.9966894382
  H        12.6644879651        6.6776087569        3.3427509817
  C        13.3522752152        5.3008354471        4.7859507777
  H         9.3757068827        7.1670283077        4.0640551095
  H        10.3596338667        6.9423244836        2.6495691420
  C         8.5757135011        5.5311543519        2.8922015070
  H        11.5895451635        4.3796089694        1.4053431824
  C        11.7599469463        1.5450284546        0.9557763789
  H        11.8869776785        0.5070720841       14.5436038011
  H        13.5900466534        0.0777329256       14.8710300397
  C        13.0282771761        1.8095072038       15.8721924233
  C         6.7345247955        8.2734616222       16.2840492697
  H        13.1138992665        4.6670439709        5.5835611736
  H        13.5260058591        4.5276836382        4.0530454613
  C        14.5465018094        6.1245477269        5.0955862368
  H         8.1058432639        4.8324127722        3.6136529070
  H         8.9840952328        5.0341402587        2.0534938632
  C         7.5425239045        6.4433492203        2.2438918816
  C        11.9448028996        0.1534782858        0.8261801835
  C        11.9346202331        2.3185044203       -0.3298339728
  H        12.5559617911        2.7892637738       15.7448435305
  H        14.0829265174        2.1036342911       16.0510014136
  C        12.5068946122        1.0574141118       17.0836819567
  H         6.7307182597        9.3163579612       16.1454983688
  C         6.4676868657        7.9293106182       17.6195684055
  H        14.1755283014        6.8815052240        5.8657252807
  H        15.0015455624        6.6501803596        4.2573922851
  C        15.5540433624        5.3086685436        5.7614213242
  H         7.1522252665        7.2057133725        2.9759285394
  H         7.9140446067        6.9647378514        1.4458616046
  C         6.4746176486        5.5841192449        1.5242398760
  N        11.8079994788       -0.7390345094        1.8799354558
  C        12.1750557395       -0.4680383656       -0.4034910790
  C        12.2153015601        1.6720729791       -1.5188735988
  H        11.5633583421        3.3346094346       -0.4174908365
  H        11.7087831965        0.4364136099       16.9065893528
  H        12.4001826110        1.7514490703       17.9125889064
  H        13.2726085172        0.4097956913       17.4028174136
  S         6.0520712385        6.3253034610       18.2253078297
  C         6.5540832609        8.9960129736       18.5959705128
  H        15.1381011419        4.8827265209        6.6836979206
  H        15.8392334207        4.5519546179        5.0537254459
  C        16.7772061346        6.1284784073        6.1242311887
  H         5.9865170687        5.0267640358        2.3235058507
  H         6.9618074654        4.8142709310        0.8386837193
  C         5.3699665087        6.3577446618        0.7244886707
  S        11.9881138131       -2.1963213206        1.1965201863
  N        12.2041371007       -1.7957160945       -0.3301290343
  C        12.4012118249        0.2359525333       -1.6158754087
  H        12.2766777644        2.3325480066       -2.4017977262
  C         6.0167249742        7.1978616306       19.8329737742
  N         6.2562935119        8.5165980044       19.8145880057
  O         6.6897026987       10.2131010556       18.3077229504
  H        17.3340344806        6.4775373424        5.2630896579
  H        16.5499421844        6.8728532566        6.8656311010
  C        17.7373583036        5.2967384822        6.9128230724
  H         5.7659965020        6.9066793669       -0.1102177611
  H         4.8477094358        5.6190610132        0.2151517613
  C         4.4125302355        7.2555170950        1.5216903516
  C        12.7966975105       -0.5303317874       -2.7346623557
  S         5.6177341647        6.3256818100       21.2510162671
  C         6.3542683108        9.2923305907       21.0265746589
  H        17.3566544976        4.8673362073        7.8115003962
  H        17.8953650478        4.4227680476        6.3285022072
  C        19.0405590587        5.8716513849        7.1555942878
  H         4.6357023624        7.1902359296        2.5588654511
  H         3.3894486828        6.9375524158        1.5118491374
  C         4.3506569389        8.7067521119        1.0923563711
  H        12.6136691745       -1.5912971518       -2.6721278760
  C        13.3028875775       -0.1681198889       -3.9767918287
  H         5.5774151445        9.1609898150       21.8316132564
  H         6.1317056114       10.3436633399       20.8081142118
  C         7.7878366711        9.1661096703       21.5692705329
  H        19.4979249838        5.5453601167        8.0784292865
  H        18.9096871149        6.9619311601        7.3032010938
  C        19.8487765744        5.8122829278        5.8404606447
  H         5.3800509260        9.0887176800        1.2909157028
  H         4.2366954018        8.6235291958       -0.0044955506
  C         3.1444028974        9.5500450480        1.6086168466
  S        13.7145070803        1.4816307815       -4.4981177125
  C        13.4368084231       -1.1901837764       -5.0552439688
  H         8.3604681345        9.5674075529       20.7493766287
  H         8.0365854766        8.1530680016       21.7490713601
  H         8.0471747886        9.7863286625       22.4725969540
  H        20.9533396167        5.6999948501        5.9787869562
  H        19.6960675403        4.8910140952        5.3676472310
  H        19.5204035847        6.5442202997        5.1830706517
  H         3.1435700722       10.5408935476        1.1567105358
  H         2.2247349799        9.1248220200        1.2741306678
  H         3.1635145112        9.6166711171        2.7588305656
  C        14.1266154437        0.8083805192       -6.0480247459
  N        14.0532054783       -0.5835076349       -6.1032616606
  O        13.2299846376       -2.3504149402       -4.8585353479
  S        14.7600908076        1.6789601588       -7.3931581598
  C        14.3025290883       -1.3805666120       -7.3210493048
  H        14.4652989083       -2.4207555738       -7.0934699132
  H        15.2232476004       -1.0817047200       -7.8775341789
  C        13.0490104195       -1.1919172595       -8.1218768253
  H        13.4698960967       -0.6948618339       -9.0025861829
  H        12.3293567984       -0.5402715341       -7.6378245263
  H        12.5457040443       -2.1781492898       -8.3244340640
