352
 i =    79600, time =    39800.000, E =       100.2713560923
  H        12.0991529764        6.5691547330       32.2398369015
  C        11.8227649596        5.5093297276       32.1847528117
  H        12.7293123321        4.8998731989       31.7537488372
  C        10.7659062604        5.3732366674       31.0204678637
  C        11.4073850583        5.0823797200       33.5841963286
  C        11.1836696862        5.8378985238       29.6013406255
  H        10.3791858270        4.3493820640       30.9789715303
  H         9.8551604527        5.8562920477       31.3565475052
  H        11.3950813266        6.0008504788       34.2654470794
  H        10.4407494748        4.6127306655       33.5213206985
  H        12.2380523508        4.3787584529       33.8961346358
  C        10.8481011303        4.9597377728       28.4216882478
  H        12.2512548803        6.1196317277       29.6319335714
  H        10.5546914222        6.7469317695       29.4435186135
  C        11.0424182120        5.5971041374       27.1224787435
  H        11.5850424981        4.1589227197       28.4666460624
  H         9.9097244310        4.5429480365       28.5491161527
  C         9.8986289377        4.9616410687       26.2329896866
  H        12.0505986358        5.3737142110       26.7289079380
  H        10.8037587792        6.6971486823       27.0396574994
  C         8.5675118484        5.6429370724       26.3369959165
  H        10.2203835724        5.1428287570       25.1869662353
  H         9.9204423834        3.8173772263       26.3960751446
  C         7.4988627148        5.0036774256       25.3922112568
  H         8.2488761040        5.5406405609       27.3384732731
  H         8.6557171829        6.6665871795       26.1352677332
  C         7.1680589279        3.6559468770       26.0760578705
  C         8.0321990073        4.3304449168       24.1708733148
  C         6.2181497527        5.8307565244       25.1758917460
  C         7.5029687890        2.5235475051       25.2782675535
  C         6.6568397366        3.2065260381       27.3156554863
  C         8.0449500644        2.9625603171       24.0614476149
  C         8.4419451513        5.0226782736       23.0524514106
  H         6.4667777152        6.6486916019       24.5352770431
  H         5.8265923194        6.2280114200       26.0991108259
  C         4.9778952459        5.1039988472       24.6146328821
  S         7.2744137539        1.0463193469       26.1051537212
  C         6.6048569644        1.8225228907       27.4063210576
  H         6.2796649123        3.9423421565       27.9866086785
  C         8.4621220000        2.4148077438       22.8527712329
  H         8.4866827967        6.1156141564       23.1055099535
  C         8.8532191473        4.4905653202       21.8749782324
  H         5.1674704923        4.7958600487       23.5859769715
  H         4.7613623166        4.1294733661       25.1422403692
  C         3.6865981670        5.9979250466       24.6123914100
  C         6.0987670385        1.1482618572       28.6403576460
  C         8.8185875502        3.1444481182       21.7541490389
  H         8.3513536866        1.3080550754       22.7486670115
  C         9.2708952259        4.9382149363       20.6301965419
  H         2.9868443556        5.5980100104       23.9216171324
  H         3.9830347151        6.9877656163       24.2939373423
  C         3.0548282213        6.2475425092       26.0450871677
  C         6.0911511986       -0.2195714953       28.9505416729
  C         5.6640919149        2.0653730498       29.7674307751
  C         9.3477069247        2.4926983884       20.4947777195
  C         9.5896533173        3.8651514877       19.8446749955
  S         9.4097379962        6.4297220851       19.8768365959
  H         2.3477289180        7.0982682270       25.8930515892
  H         3.7691252608        6.5052197927       26.7763869702
  C         2.1466841513        5.1553173501       26.4456946169
  N         6.4897362944       -1.2101806605       28.0504206069
  C         5.7617325105       -0.7267009204       30.1691208556
  C         5.4032309627        1.5805269549       31.0211935034
  H         5.5519817983        3.1853034258       29.5583967920
  C         8.2757665066        1.7014152788       19.7343966767
  C        10.5989395405        1.5894891357       20.7221573196
  C        10.1454050671        4.2411542116       18.5738404978
  C         9.8746778330        5.6074061206       18.4083640772
  H         1.4931972298        4.8501238756       25.6344299982
  H         2.7549893214        4.3137053567       26.5783221968
  C         1.4386576580        5.4839683573       27.7058824697
  S         6.2563217780       -2.7171429185       28.7367099878
  N         5.9131755101       -2.1039154864       30.2416440810
  C         5.4206963337        0.0816188513       31.2901617799
  H         5.2547092444        2.2528642567       31.8081499532
  H         7.6779857163        1.0801359494       20.4417006360
  H         8.6939374568        1.0065353000       18.9554195379
  C         7.2498912767        2.6824770092       19.0417697005
  H        10.8943503678        1.2131388136       19.7910078454
  H        10.3707662956        0.7696605614       21.3226154292
  C        11.8400485356        2.3675436446       21.2472833228
  H        10.4047133243        3.4571381911       17.9252200589
  C        10.1093025975        6.3822555416       17.1184012964
  H         0.6952728007        4.7269747692       27.9447323567
  H         0.9221928678        6.4769310710       27.5809176516
  C         2.4115279235        5.4750357663       28.8578576858
  C         5.2663316991       -0.4808039331       32.5661178973
  H         7.6655686585        3.2156860876       18.1643334876
  H         6.8822438394        3.3108721748       19.8705974054
  C         6.0716773910        1.7966225669       18.6432403531
  H        11.5151013231        2.9846234460       22.0736994797
  H        12.2004344536        2.9946498020       20.4600809308
  C        13.0084282431        1.4787805570       21.6190303775
  C        10.0901734815        7.7725579270       16.8608005604
  C        10.2743526901        5.6146734130       15.8638083056
  H         3.0796109901        4.5744712349       28.7075325859
  H         3.0713439272        6.3144409619       28.7479355886
  C         1.7106889214        5.4939391420       30.2136240069
  H         5.3987282427       -1.5825675082       32.4703416030
  C         4.9394192512       -0.0214530494       33.7962114289
  H         5.6464384721        1.2475284512       19.4474845480
  H         6.3844093029        1.0845291859       17.8605298973
  C         4.9968976796        2.7243912586       17.9591578009
  H        12.8921873055        1.0651354072       22.6142687622
  H        13.0228129857        0.5996061764       21.0318191037
  C        14.4268024241        2.1147442798       21.4947510810
  N         9.9105930680        8.6710315449       17.8819319225
  C        10.2256172956        8.3728711180       15.6312393282
  C        10.5182071532        6.1509627290       14.6280072312
  H        10.3277971987        4.5171338891       15.9721112873
  H         0.9341738261        4.7383073228       30.3569345785
  H         2.4738647714        5.2818910859       31.0031647835
  H         1.3004679085        6.5009836764       30.3944146952
  S         4.5591742263        1.5652453293       34.2598470550
  C         4.9463127950       -1.0363321107       34.8852274357
  H         4.9624999654        3.7167640259       18.3454262528
  H         5.3376727821        2.9520370511       16.9700081360
  C         3.5813505044        2.2390231766       17.7513646402
  H        14.4791561474        3.0842053033       20.9187018784
  H        15.0570502935        1.3941921633       20.9759181652
  C        14.9785012139        2.3672271868       22.8836252799
  S        10.1285574896       10.1275497373       17.2757249158
  N        10.3486126778        9.7080347640       15.7589826232
  C        10.4983074312        7.6411022414       14.4361762897
  H        10.5821778209        5.5224700425       13.7939734441
  C         4.3257183886        0.9193588324       35.8792688993
  N         4.4892538660       -0.4304384284       36.0150005231
  O         5.2643397742       -2.2295314604       34.8180055991
  H         3.1881929740        2.9255121018       17.0761542103
  H         3.0713990019        2.1770936111       18.6681993968
  C         3.6382063211        0.8895414135       16.9738258829
  H        14.1621236540        2.8860753452       23.4371850682
  H        15.2139561363        1.3970806008       23.3123004244
  C        16.1935660637        3.3110396120       22.8244508105
  C        10.8358796773        8.3974990316       13.3026457807
  S         3.9888165307        1.9191831983       37.3397610314
  C         4.4077819344       -1.0954679634       37.2419085172
  H         3.3525709812        1.1824516201       15.9790286011
  H         4.6727906682        0.5461465684       16.9109924223
  C         2.8283508356       -0.2649895790       17.4290667363
  H        16.2203597342        4.0014127187       23.6250804846
  H        16.1421144140        3.9075276274       21.9156411940
  C        17.5534397713        2.6816064085       22.5215971150
  H        10.4085550208        9.4349739538       13.2058345440
  C        11.5892096928        8.1605543473       12.2123989943
  H         3.6478730894       -0.6564046787       37.8356627443
  H         4.1438746266       -2.1183471022       37.1257281480
  C         5.7709717497       -1.1243009499       37.9138288745
  H         2.9416103818       -1.0280970133       16.6462509952
  H         1.7485209596       -0.0633453178       17.5946967417
  C         3.4409467391       -0.9551066405       18.7009498038
  H        17.4352158915        1.9445296029       21.7358210034
  H        18.2885651264        3.3790621354       22.2979298768
  C        17.9276248608        1.8851468509       23.7966402717
  S        12.2125313733        6.6277903649       11.7881389587
  C        11.5494279893        9.1666166192       11.0804000166
  H         5.6604442790       -1.5924055949       38.9051999662
  H         6.5104703414       -1.7195026161       37.3746459792
  H         6.1874544618       -0.0778928664       37.9597118735
  H         4.4421600420       -1.4270851543       18.5121719207
  H         2.8527035826       -1.7849137019       19.1196872184
  H         3.7152097913       -0.2665632178       19.5017784728
  H        17.9777751158        2.6376831926       24.5936333693
  H        18.9733974430        1.5483106035       23.7848953107
  H        17.1839939679        1.0565793799       24.0049955262
  C        12.5202836744        7.2747623972       10.1731380436
  N        12.1938873718        8.5916693463       10.0697087418
  O        10.8532926939       10.1439388615       10.9705986755
  S        13.3792316077        6.4887785923        8.8493424792
  C        12.2709620483        9.3281038330        8.8031934804
  H        12.4634396177       10.3781407664        8.9602947998
  H        13.1507107184        9.0132544141        8.1979868660
  C        10.9636877264        9.3648721024        7.9282359658
  H        10.7522037635       10.4394410518        7.8606424613
  H        11.0519003347        8.9298116163        6.8840135842
  H        10.2120285105        8.8119318975        8.4529587785
  H         2.6809177601        3.1591188548       12.9444433203
  C         3.3905282306        2.6780280714       12.2523027338
  H         3.3414043343        1.5529061799       12.3102970232
  C         3.0385013236        3.1996738280       10.8514834051
  C         4.7845333266        2.9293354451       12.7626601582
  C         4.1788677129        3.1475699037        9.8420625417
  H         2.6772821406        4.1784696151       10.9724109891
  H         2.1833189550        2.6591202964       10.5022479383
  H         5.5329969749        2.5006504805       12.1269042786
  H         4.9634911310        2.5926833195       13.7625534268
  H         5.0748180172        3.9609343469       12.7902599159
  C         4.7734173077        1.7570942284        9.5260808641
  H         4.0005894832        3.7127212292        8.9163926993
  H         4.9485240542        3.7464916473       10.3854735734
  C         5.6458349615        1.7675954529        8.2294359338
  H         3.9156558935        1.1035734630        9.2898600765
  H         5.2469303027        1.3496003591       10.4038881232
  C         6.9242200284        2.5628399955        8.3779236430
  H         5.0554253479        2.1513685049        7.4470936546
  H         5.7910063622        0.7491158970        7.9187996068
  C         8.0654354730        1.8717028600        9.1654076334
  H         7.1884216477        2.9736306465        7.3929440146
  H         6.6265163279        3.5285536511        8.8553991880
  C         9.2781779901        2.8306740137        9.3586645203
  H         8.3337074481        0.9453619599        8.7134065227
  H         7.8572207539        1.4796707247       10.1384356817
  C         8.8619418330        4.1858320909        9.9748160373
  C         9.7080275903        3.5223676288        8.0844305122
  C        10.4691436548        2.0829038054       10.0166412836
  C         9.0544364181        5.2784712597        9.1606818476
  C         8.2626988427        4.5779775199       11.2070340284
  C         9.5838202122        4.8657497519        7.9536381108
  C        10.0993529528        2.9270269098        6.9183688346
  H        10.0708276301        1.3482431780       10.6743776660
  H        11.0405329005        1.5710513113        9.3048698591
  C        11.3130056001        2.9667964267       10.8672021913
  S         8.7242343371        6.7586182528        9.9839876135
  C         8.2200384489        5.8759700745       11.3494144501
  H         7.9267220517        3.8118638008       11.8361197517
  C         9.8665421076        5.5159187701        6.7855520380
  H        10.2038279596        1.8631545302        6.9775492798
  C        10.3549367604        3.5983076074        5.7742831419
  H        10.7158531609        3.3294951789       11.6770164682
  H        11.8310054466        3.7478232373       10.2656726258
  C        12.4320732803        2.1208184721       11.5395132684
  C         7.7202824451        6.5291749857       12.6021660456
  C        10.3166331919        4.9173546996        5.6488599364
  H         9.7499960938        6.6088359230        6.7075056874
  C        10.7071925267        3.1683850440        4.5103480777
  H        13.2608837612        2.7876622364       11.7183549020
  H        12.8869087889        1.4693970019       10.8465806847
  C        11.9579450871        1.4893572873       12.8199861764
  C         7.7115103339        7.8864138686       12.8350228231
  C         7.3420602170        5.6191315183       13.7039284739
  C        10.7409130354        5.5927177675        4.4420048908
  C        10.9735979346        4.2368342478        3.6734631870
  S        11.0053127539        1.6402927484        3.7490262782
  H        10.9038053883        1.2157757990       12.7528000056
  H        12.4968637320        0.5444873313       12.8292164081
  C        12.2564844837        2.3460322969       14.0249387816
  N         8.0159027015        8.8601075272       11.8551147684
  C         7.3384988367        8.4285248054       14.0350506996
  C         6.9874664892        6.2278297512       14.9042783034
  H         7.3890156659        4.5460220868       13.6599788880
  C        12.1350967470        6.3291041883        4.6722704970
  C         9.6030166985        6.4685943272        3.8697687101
  C        11.4859778156        3.7931857497        2.4036079297
  C        11.4735213703        2.4509644145        2.2091334794
  H        11.2597919753        2.8572450726       14.2319746475
  H        13.0797264387        3.0346614395       13.7817519928
  C        12.5737617312        1.6094013138       15.3697684409
  S         7.9529902869       10.3364344288       12.6117154352
  N         7.5384620168        9.7593904839       14.0581485337
  C         6.9110483955        7.7074097932       15.1169700819
  H         6.7302017938        5.6363316287       15.7096670917
  H        11.9286357952        7.0778511680        5.4101526621
  H        12.4200228223        6.7539684883        3.7411153945
  C        13.2317621240        5.4629552296        5.2474414401
  H         9.4318551743        7.2350929557        4.5563089270
  H         9.9926880100        7.0548478014        3.0273224014
  C         8.2769757726        5.8351199414        3.5147160589
  H        11.7762140266        4.5966285731        1.6985166808
  C        11.6978621874        1.7577342518        0.9752732703
  H        11.6428471278        1.2934972280       15.8692497331
  H        13.0654628606        0.6944138879       15.1172644667
  C        13.4098661688        2.4371559058       16.2987998909
  C         6.8179503998        8.3691079640       16.3619225066
  H        13.0368272434        5.1143757606        6.2268194897
  H        13.3731246325        4.5615141400        4.7244244159
  C        14.5693847695        6.2358559998        5.2873124144
  H         7.4899208953        6.3519831803        4.0405244609
  H         8.3346678525        4.7497292553        3.8306420041
  C         8.1628940070        5.9350633512        1.9558771391
  C        11.7488151062        0.3740565067        0.7417200299
  C        11.7934056145        2.5122463382       -0.2882564947
  H        12.8608059671        3.3476237272       16.5279060545
  H        14.3397271378        2.9632691650       15.8491397405
  C        13.7982471260        1.5119725192       17.5259020521
  H         7.0036894853        9.4201595246       16.4737726530
  C         6.5000359176        7.9057435932       17.6014032266
  H        14.3420557916        7.0817959749        5.9104591478
  H        14.9276813764        6.7363899824        4.3860327209
  C        15.6031500956        5.4638360814        6.1400767269
  H         8.3520692817        6.9535182343        1.5951772299
  H         8.8954139496        5.2993528775        1.4627742805
  C         6.7728725066        5.5036646231        1.3755559893
  N        11.6015034150       -0.4956331649        1.7958266005
  C        12.2095982053       -0.3183501934       -0.4303735643
  C        12.0145359041        1.8574695250       -1.5117048389
  H        11.6451034253        3.5892645986       -0.2960703235
  H        14.5400191225        1.9585447898       18.2216742980
  H        14.0209325779        0.4451307776       17.2881545562
  H        13.0050466142        1.5556445782       18.3182243711
  S         6.1004796481        6.3057744371       18.0420666389
  C         6.5379790151        8.9285095493       18.7366473297
  H        15.1012505736        4.8484092763        6.9753444642
  H        15.9790270799        4.8064604884        5.4254532412
  C        16.7476693233        6.3565314987        6.6689609218
  H         6.5181356683        4.4588351810        1.7583153390
  H         6.7001091079        5.5007038059        0.3056090636
  C         5.6605362075        6.4329287544        1.9198429999
  S        11.8602943290       -2.0611012784        1.2641882050
  N        12.3317277307       -1.6856678915       -0.2309791467
  C        12.5129978689        0.4293431440       -1.5716749082
  H        12.0510716308        2.4768141469       -2.3297579437
  C         6.0053463171        6.8909858434       19.6660088383
  N         6.2904336376        8.2145312794       19.8686643823
  O         6.8165374908       10.1298299555       18.6355421321
  H        16.8532196060        7.2703519145        6.1961644979
  H        16.5263009448        6.6692669138        7.6944259451
  C        18.1191007496        5.6143083445        6.8611596209
  H         4.7468342085        5.8319047281        1.8484250185
  H         5.8234991062        6.7537477490        2.9194456725
  C         5.5241395182        7.7439389278        1.0653278947
  C        12.9488521118       -0.2770455218       -2.7321554284
  S         5.7366350226        5.8751870625       20.9880312216
  C         6.4541143445        8.8022926521       21.1282388863
  H        18.5290912178        5.6119996879        7.8965367190
  H        17.9486903739        4.5879893473        6.5254796412
  C        19.1537544830        6.2224597643        5.9992548816
  H         5.7692240275        7.5398040986       -0.0080636115
  H         6.1840550097        8.5428962085        1.4585824462
  C         4.1968393947        8.3310244441        0.9666724748
  H        12.9061986963       -1.3679749599       -2.6808115767
  C        13.4629145833        0.2747035796       -3.8887789077
  H         5.8431770152        8.2802504272       21.8981090491
  H         5.9563379904        9.7383101930       21.0809313802
  C         7.9405685130        8.9521189532       21.5210529384
  H        19.7521231873        6.9573121898        6.5850794196
  H        18.5958716649        6.6199065693        5.0478923481
  C        20.1000918773        5.1544957172        5.4562699114
  H         3.6680685506        7.8720570410        0.0960244949
  H         3.4834825331        8.0217010662        1.6901084090
  C         4.0789435013        9.8332659238        0.6843900213
  S        13.8988923762        1.8826396236       -4.2901549015
  C        13.5164627080       -0.7180683397       -4.9651606335
  H         7.9789567393        9.6119119027       22.4159200915
  H         8.4747693284        9.4387087520       20.6664908031
  H         8.3938010184        8.0359401914       21.8235345148
  H        21.1521349732        5.4372693711        5.4005068485
  H        20.0105971087        4.3517096101        6.1623268404
  H        19.9060691505        4.8704111843        4.4544977493
  H         3.5742753090       10.4121952663        1.5153490885
  H         5.0379930498       10.2109348259        0.5226383103
  H         3.5966302218        9.9305628632       -0.2868423952
  C        14.2157642185        1.2104447367       -5.9096117871
  N        14.0880539023       -0.1353174531       -6.0553395159
  O        13.1519914191       -1.8925469342       -4.9499681229
  S        14.6620869797        2.1883889302       -7.2695392968
  C        14.3340524045       -0.8650088808       -7.3017601854
  H        14.5643133594       -1.8482756275       -6.8937489033
  H        15.1231228116       -0.3710903012       -7.7848787489
  C        13.0529241557       -0.7973495729       -8.1871622362
  H        13.3069101372       -0.8643100685       -9.2446592568
  H        12.6493768979        0.1900396401       -8.1708098276
  H        12.2429619577       -1.5101045640       -7.8941882389
