352
 i =    78000, time =    39000.000, E =       100.0467626859
  H        12.5704012529        6.6387009988       31.9870825049
  C        11.9127871214        5.8259481409       32.2904269941
  H        12.4810207627        4.8656084013       32.1767760903
  C        10.8200626934        5.9954056949       31.2450770964
  C        11.3012806381        5.9545386405       33.6777478198
  C        11.2529586530        5.7835242998       29.7929333605
  H         9.9762421669        5.3023171951       31.3961308396
  H        10.3353117594        6.9804407092       31.2319816063
  H        10.4864646930        6.7302822023       33.7898769449
  H        10.7467227876        5.0463608252       33.9126771256
  H        12.0832302808        6.1521764382       34.4713068009
  C        10.1318311901        5.7328647709       28.7631706824
  H        11.8375777164        4.8664815600       29.7078053100
  H        11.9228901031        6.4673334673       29.4698263940
  C        10.6770417563        5.5749811585       27.3105692742
  H         9.5861057338        4.8641551061       28.9701518911
  H         9.5802339586        6.6693866451       28.7513858533
  C         9.6414544970        4.9355113867       26.4043068892
  H        11.5579650163        5.0318995512       27.3927897630
  H        10.8464033938        6.5383662115       26.8982163386
  C         8.3805600764        5.8171304509       26.2433680773
  H        10.1570868981        4.8781021525       25.4632267867
  H         9.5036979463        3.9318447134       26.8224841549
  C         7.3182652809        5.1098268786       25.4655571885
  H         7.7664745439        6.0426768256       27.1831793167
  H         8.6267416189        6.8193894131       25.8413536707
  C         7.0643537694        3.7710412256       26.1029944811
  C         7.8095012995        4.4174900136       24.1715750239
  C         6.0344473185        6.0416432040       25.2586730173
  C         7.1677595958        2.6901007468       25.2483427448
  C         6.6732169996        3.4165754027       27.4082744469
  C         7.7021609938        3.0989719622       24.0477940402
  C         8.3213240255        5.1104507292       23.0834501481
  H         6.2486455226        6.8712348019       24.5824076911
  H         5.8869022971        6.5681670890       26.2228516605
  C         4.7555083179        5.3190626203       24.8459529876
  S         6.6238817960        1.2112557670       25.9022628264
  C         6.4040226353        2.0731799763       27.4317056449
  H         6.6790997783        4.1671795065       28.1677469190
  C         8.1713109990        2.5029271933       22.8936289781
  H         8.5011838590        6.1458621913       23.2030811025
  C         8.7449996506        4.4971123040       21.9037375873
  H         4.7984834253        5.0095599387       23.7496768699
  H         4.5913294533        4.4466397268       25.4807145220
  C         3.5233418745        6.2672763370       24.9028053583
  C         6.1343518890        1.3366977715       28.7451745310
  C         8.7482113395        3.1671739817       21.7925898951
  H         8.1481947067        1.4169321523       22.7376822461
  C         9.2567410451        4.9161700812       20.7164182890
  H         2.8233215706        5.8736814880       24.2770383124
  H         3.9118055152        7.2206802306       24.4908092218
  C         3.0397920927        6.5261965852       26.3292042444
  C         6.2071036799       -0.0732233116       28.9740001574
  C         5.7612598200        2.1401149972       29.9396843750
  C         9.2434448654        2.4977960553       20.5050510769
  C         9.5501003620        3.8691102513       19.8381548380
  S         9.5165261719        6.4616938372       20.0061736284
  H         2.6523580368        7.5069613374       26.2548608767
  H         3.8210953740        6.4468616598       27.0450368537
  C         1.8506175524        5.6190490823       26.7079529756
  N         6.6943553681       -0.9327162232       28.0365455407
  C         5.8359956078       -0.6613275151       30.1599797106
  C         5.4627381039        1.4975752044       31.1718037972
  H         5.6023158858        3.1588969284       29.8216884103
  C         8.2367883042        1.6766138903       19.5983437585
  C        10.5674968229        1.7135958467       20.5543979491
  C         9.7766210562        4.2687010968       18.5330395589
  C         9.8963177137        5.6073201684       18.4832633883
  H         0.9229124349        5.8394355340       26.0991210112
  H         2.0132544130        4.6044552099       26.4256521873
  C         1.4135557061        5.5308282153       28.1721474293
  S         6.5306295016       -2.4436589518       28.6675975943
  N         6.0943280152       -2.0181922829       30.1860313715
  C         5.4912337649        0.0765204261       31.3174090161
  H         5.0940300665        2.2128122626       31.9101993711
  H         7.9332812436        0.7916861525       20.1531963606
  H         8.6694392286        1.3410740806       18.6618604275
  C         6.9629896902        2.4066145761       19.1274784896
  H        10.7086201812        1.5676554341       19.4788750675
  H        10.3848061982        0.7310225372       20.8955881443
  C        11.6836543213        2.3331361777       21.3441495713
  H         9.8553584045        3.5451820236       17.7513469660
  C        10.1509235280        6.3624870484       17.2119023585
  H         0.5682078320        4.8573167880       28.3894583681
  H         0.9859849651        6.4567609724       28.5973260694
  C         2.5675554227        5.2537363682       29.1427425227
  C         5.2389499334       -0.6375590321       32.5410505732
  H         7.2795626543        3.0434066366       18.3382418731
  H         6.6105656614        2.9653406236       19.9654932528
  C         5.7674319154        1.5450872327       18.6158216643
  H        11.4198940561        2.3308951424       22.4437790642
  H        11.7922565102        3.3347053294       20.9992144617
  C        12.8803156500        1.4941971828       21.1846851469
  C        10.1170473658        7.7463340246       17.0619337201
  C        10.2583055544        5.5521820363       15.9628978762
  H         3.1359273627        4.3526634899       28.9083984055
  H         3.3463098767        5.9917422233       29.0226987043
  C         2.1938679234        5.2388186517       30.6096140482
  H         5.1802702196       -1.7709286786       32.4761061899
  C         4.9864073661       -0.2408939382       33.8214410889
  H         5.2791229404        1.0934221837       19.3647763428
  H         6.1634949090        0.8289359556       17.9271651124
  C         4.8437318221        2.4287759712       17.7763151016
  H        12.8680635451        0.5090609390       21.6166725764
  H        12.9837545414        1.2089822193       20.1288104644
  C        14.1936532265        2.1401793636       21.5814036546
  N         9.9939320897        8.6929973866       18.0746938288
  C        10.4116282346        8.4256895390       15.8910604318
  C        10.4350788962        6.2311324650       14.7481600086
  H        10.3816065248        4.4512542130       15.9311699484
  H         2.2918659456        6.2132364690       31.0521664868
  H         1.1305180046        4.9134985343       30.7349694787
  H         2.8582043936        4.5343167429       31.0827458320
  S         4.7183332029        1.3535624199       34.3960169842
  C         4.9182774643       -1.3016690754       34.8896308002
  H         4.8729310389        3.3989924053       18.2854001666
  H         5.2115104677        2.5404075570       16.7619471384
  C         3.3928712109        1.9516748116       17.8547188333
  H        14.0504654833        3.1261330480       21.0756700052
  H        14.9306118070        1.5995847275       21.0133303965
  C        14.4811368613        2.1675785162       23.0691298579
  S         9.9611077957       10.1887755288       17.5541212711
  N        10.2362582362        9.8158062066       16.0531700666
  C        10.6495763852        7.7070863263       14.6975279842
  H        10.5084936462        5.6355888535       13.8384277522
  C         4.5150609829        0.6911095795       36.0065423784
  N         4.5728503854       -0.6809427741       36.0401032320
  O         5.0712077896       -2.5222472546       34.7345819989
  H         2.5755256543        2.6501426477       17.5420625171
  H         3.1497407950        1.7479502015       18.9406856773
  C         3.0887426141        0.6768643164       17.0924907281
  H        13.4807862948        2.2053244521       23.5120832690
  H        14.8157222893        1.1761926502       23.2716900762
  C        15.3949910604        3.4027481526       23.3885175540
  C        10.8321004803        8.4559138708       13.4851250659
  S         4.0273715443        1.5729625656       37.4438014903
  C         4.7197108820       -1.4583200722       37.2960429788
  H         2.6948400050        0.9097963084       16.1492691011
  H         4.0741565889        0.1716097646       17.0440896002
  C         2.0500812327       -0.2547351830       17.7242101750
  H        15.3033397614        3.5787716047       24.4257120846
  H        14.9604207316        4.2944541238       22.9038052580
  C        16.8981131922        3.2905069043       22.9405835477
  H        10.6013275655        9.5316849813       13.6559771520
  C        11.4358728922        8.1684158736       12.2373831575
  H         4.1324018161       -1.1700139404       38.1068915168
  H         4.4687845294       -2.5501578001       37.0362457853
  C         6.1827770400       -1.2897484399       37.7097422579
  H         1.5518241517       -0.7587503339       16.8813135850
  H         1.2715621248        0.3447837281       18.2118060375
  C         2.5576555648       -1.3897250574       18.6244174021
  H        16.9580665555        3.0070332866       21.9177336670
  H        17.3555461377        4.2251237349       23.1192771106
  C        17.6462202974        2.3050717694       23.7745319588
  S        12.3399237067        6.7733277483       11.8389097423
  C        11.4597922454        9.2482387731       11.1696331781
  H         6.2733487998       -1.5263275108       38.7920589719
  H         6.9120693998       -1.8088234092       37.1145026959
  H         6.3598096683       -0.1984332564       37.6689658640
  H         2.5725438068       -1.1795271646       19.7207463895
  H         3.5841360768       -1.6479693366       18.3401394961
  H         2.0856317044       -2.2592570678       18.2649692264
  H        17.2626069286        2.1337623219       24.7873222975
  H        18.6918670088        2.6221614826       23.9036303243
  H        17.7570689597        1.3167346792       23.3769524487
  C        12.5875559359        7.5252163573       10.2823062287
  N        12.2488451552        8.7971025789       10.2118752359
  O        10.9436551568       10.3637166136       11.2592913592
  S        13.3868311481        6.8210915153        8.8158449176
  C        12.4536791531        9.5942387423        8.9549305165
  H        12.5916700704       10.6421752615        9.1720637803
  H        13.4487825877        9.3564962953        8.5054614481
  C        11.2538015443        9.3388254182        8.0073890254
  H        11.1007228556       10.2890290309        7.4623146484
  H        11.4437256580        8.4462696393        7.3845520705
  H        10.4330868738        9.1122974412        8.6732201847
  H         2.6139096992        1.0867504744       13.0611599856
  C         3.2735980143        1.8514049198       12.5907549628
  H         4.2871605695        1.3739534730       12.4900167367
  C         2.6970660510        2.2137187972       11.2284629220
  C         3.3955633230        3.0499938586       13.5472558135
  C         3.7640140683        2.6704279460       10.2284096516
  H         2.0375484269        3.0545286960       11.2966848028
  H         2.0807557206        1.4017625953       10.9316344000
  H         4.1357337461        3.7697434596       13.2777963699
  H         3.8045480271        2.6304280335       14.4637291505
  H         2.3804642297        3.4575330875       13.7716543333
  C         4.5379356751        1.4852387615        9.5879792969
  H         3.2534433051        3.2334010537        9.4449479401
  H         4.4459619061        3.4042336194       10.6064585975
  C         5.5359328429        1.9086491224        8.4782903689
  H         3.8103366746        0.7858462613        9.0556790019
  H         5.1550246987        0.9680955651       10.3823033467
  C         6.6390673862        2.8638348012        8.8381171446
  H         4.8993118266        2.3290766560        7.6670678809
  H         6.0704568029        1.0664593854        7.9825361493
  C         8.0091305771        2.1313275257        9.1726985586
  H         6.7432706363        3.4127870748        7.9532366456
  H         6.3157181648        3.5565052973        9.6224819361
  C         9.2996769570        2.9272862489        9.1917363861
  H         8.1846276482        1.4159031145        8.3536434165
  H         7.9591242378        1.4295452951       10.0401580131
  C         9.0098514448        4.3316899770        9.8202912271
  C         9.8029615074        3.6726081833        7.9865317752
  C        10.4555595406        2.2649657448        9.9684266885
  C         9.1915610368        5.4956498299        9.0393972020
  C         8.5341174044        4.6743776757       11.1037684639
  C         9.6650496358        5.0336814952        7.8242648353
  C        10.2560063277        3.0936086567        6.7726652633
  H        10.0171869057        1.8573279467       10.8484365731
  H        10.6964368834        1.4745526464        9.2809456786
  C        11.6688371291        3.1510145947       10.2181949349
  S         8.7609920421        6.9926332440        9.8230278468
  C         8.1977039779        6.0598231931       11.1695579574
  H         8.2923046229        3.8859246062       11.7647774056
  C         9.9587535120        5.5993427733        6.6045653965
  H        10.3332387136        2.0049847909        6.8751977110
  C        10.4195330760        3.6220061607        5.5401022225
  H        11.2733296085        4.0568720067       10.7869237788
  H        12.0720402282        3.4592011225        9.2488889130
  C        12.7400136304        2.4680633119       10.9545431620
  C         7.6745159656        6.6456125063       12.5113837666
  C        10.3090276411        4.9556412088        5.4202557273
  H         9.8889503039        6.6932582828        6.5118153164
  C        10.8676217075        3.2257122307        4.2766860465
  H        13.7227968605        3.0443719779       11.0109838319
  H        12.8957576250        1.5380284896       10.4809793123
  C        12.3984968514        2.1979072407       12.4447099493
  C         7.7327667698        8.0408863793       12.8767230525
  C         7.2847007321        5.7936075827       13.6564801736
  C        10.7242953074        5.6258820701        4.1189643552
  C        11.0027562781        4.3139855209        3.4055482155
  S        11.1098580664        1.7024711850        3.4707279110
  H        11.7787427786        3.0481046700       12.5889511078
  H        11.7586190485        1.3024973539       12.3827615031
  C        13.6454803084        2.0936521595       13.3772854603
  N         8.1570605531        8.9572968927       11.9526817849
  C         7.4531551704        8.5445755272       14.0965093123
  C         7.0292067733        6.3048607105       14.9662846562
  H         7.1539584095        4.7212165433       13.4272104726
  C        12.0520511243        6.3655057402        4.2811346358
  C         9.6241815172        6.3866514576        3.3694832994
  C        11.3081630960        3.9128021872        2.0824747737
  C        11.3360615239        2.5489935329        1.9488908432
  H        14.1652643701        3.0896806476       13.5549021286
  H        14.3448196944        1.4835790066       12.7738993465
  C        13.3847619314        1.5225785877       14.7964888727
  S         7.9547732392       10.4022313252       12.6790994679
  N         7.4998321029        9.9491560503       14.1868890537
  C         7.1711912070        7.7797950839       15.2399740424
  H         6.7571406720        5.6499972240       15.7560080390
  H        11.9076535336        7.2660500609        4.9505393485
  H        12.2519799763        6.6908587737        3.2868176001
  C        13.2685755655        5.5856953133        4.8370242279
  H         9.5411885657        7.2739828592        3.9476280168
  H        10.0647409244        6.7801916685        2.4256562145
  C         8.2938903468        5.6407604938        3.0071348732
  H        11.4138512950        4.7049081075        1.3941943261
  C        11.6701528377        1.8068962795        0.6965018441
  H        12.5356329633        0.8835716977       14.5950453531
  H        14.1939923625        0.9021151079       15.1418574569
  C        13.1278493753        2.6232123311       15.8068551509
  C         6.9042773215        8.4072668328       16.4366812207
  H        12.9774390865        5.0820308984        5.7502167883
  H        13.4551716693        4.7417087170        4.2501600604
  C        14.4938102002        6.4172092319        4.9584041185
  H         7.7233769411        5.5509250529        3.9133609334
  H         8.5366932219        4.6012110524        2.6899440889
  C         7.5607600815        6.2500834259        1.8677279384
  C        11.8389338366        0.4206719355        0.5021153942
  C        11.8435394013        2.5511076668       -0.5504776429
  H        12.4714487615        3.4090892178       15.4657291850
  H        14.0925868191        3.1789778157       16.0239093407
  C        12.5308761729        2.0876598227       17.1892206257
  H         6.9839565709        9.4423598386       16.4364080140
  C         6.5192083786        8.0128382368       17.6943126323
  H        14.2984805755        7.1584495239        5.7224933103
  H        14.6621437677        6.9735983498        4.0250026079
  C        15.6913534090        5.5130588797        5.3029314006
  H         7.7366290095        7.3246334543        2.1160708817
  H         8.1780634007        5.9848952244        0.9993178868
  C         6.1368892697        5.6556598642        1.7485871426
  N        11.6600277989       -0.4461679699        1.5649512254
  C        12.0271963096       -0.2255921875       -0.6724178253
  C        12.2137915452        1.9584543998       -1.7394895818
  H        11.8966512169        3.5560027021       -0.5450600462
  H        13.3146270904        1.5408516000       17.7336098918
  H        11.6044345339        1.4850104388       17.1920567223
  H        12.2342817761        2.9196176647       17.8654527872
  S         6.2814163467        6.4348842920       18.2819891085
  C         6.4125907144        9.0680658675       18.7307041679
  H        15.2874082987        4.6145884566        5.8008224039
  H        16.2604029339        5.2663324050        4.4275407254
  C        16.6585253319        6.1509430855        6.3371405164
  H         6.0267864198        4.8439128532        2.5249689964
  H         6.0655300552        5.2757520018        0.7620805282
  C         5.1133470640        6.6948902387        2.0862730549
  S        11.7354769650       -2.0099792228        1.0831372922
  N        12.0988236122       -1.6667446503       -0.5002677502
  C        12.3644173329        0.4795086896       -1.7954998565
  H        12.3643463700        2.5844555145       -2.5971462586
  C         6.0647165165        7.1328828933       19.8372383855
  N         5.9822810078        8.4917523793       19.9158786926
  O         6.6754273086       10.2718520950       18.5580441907
  H        17.3813551496        6.7783553427        5.7373232431
  H        16.1176159670        6.8580436280        6.9481582592
  C        17.3748079992        5.1698722791        7.2812832767
  H         4.1052178969        6.2247315808        2.3683907757
  H         5.4762928938        7.1258148697        3.0364694941
  C         5.0555746577        7.7252561282        0.9826370533
  C        12.8001281592       -0.2837492734       -2.8730110778
  S         5.7243421757        6.2747748598       21.2685752304
  C         5.8947555610        9.2435002654       21.1231174742
  H        16.6995210921        4.9747464161        8.0990670054
  H        17.6918932061        4.3243687176        6.6284955938
  C        18.6878252643        5.6708023658        7.8607486408
  H         5.2284798274        7.3459607245       -0.0028207918
  H         5.8532571109        8.4392313790        1.1570765114
  C         3.7823759936        8.4869853853        1.1026990255
  H        12.6428364756       -1.3636873384       -2.7872900326
  C        13.3627287331        0.0380090188       -4.0866880136
  H         5.0921342439        8.9278440035       21.9123050859
  H         5.7055033357       10.2928531388       20.8895317393
  C         7.2603679664        9.1187872570       21.7973273675
  H        19.0339866926        5.0214337605        8.7339715320
  H        18.5064432346        6.6760010883        8.3140094125
  C        19.7965240539        5.6841132868        6.8347747534
  H         3.3603524327        8.8086331273        0.1204426927
  H         3.0616164413        7.8885878033        1.6226765489
  C         3.9382916743        9.7486208645        1.8714829033
  S        13.8964691987        1.6451159814       -4.5523928612
  C        13.4436075102       -1.0176313850       -5.1447153413
  H         7.6795289839       10.1039125082       22.0923972383
  H         7.9616601817        8.5471099228       21.2599948443
  H         7.1272064119        8.5497188554       22.6756499984
  H        19.8331489607        6.6137891548        6.2509528810
  H        20.6603877806        5.8224207579        7.4204354493
  H        19.9816811664        4.8283870007        6.1665633096
  H         4.8388778413       10.2812174712        1.4610839396
  H         3.1496935850       10.4244131082        1.6180809233
  H         4.0072900492        9.6183491563        2.9560554841
  C        14.0674871226        0.8846179415       -6.1954035803
  N        13.8665704242       -0.4256324731       -6.2619504449
  O        12.9825553501       -2.1767137057       -4.9921162674
  S        14.8178947250        1.6414691037       -7.5295014047
  C        14.0502281532       -1.1979541911       -7.4524065314
  H        14.3288591406       -2.2690552205       -7.1696503872
  H        15.0312591596       -0.9218095538       -7.8346975912
  C        12.8865602649       -1.1753198157       -8.4959568302
  H        11.9233928854       -0.8160921120       -7.9564260495
  H        12.8189245080       -2.0681889372       -9.0840946502
  H        13.1739352116       -0.3495840459       -9.1800480085
