352
 i =   105400, time =    52700.000, E =       100.0941967853
  H        10.5084972906        3.8841385890       31.3979107968
  C        10.6236437475        4.8273849594       31.8774263166
  H         9.6595426550        5.3423941569       31.7656731753
  C        11.7032630123        5.5765779331       31.0554743216
  C        11.0254060206        4.6999713301       33.3440011618
  C        11.1169177820        6.2890796915       29.7942731176
  H        12.2418251227        6.2732314242       31.6762094451
  H        12.5337067496        4.9945890547       30.7027537333
  H        10.3792883111        4.0064837621       33.8331421765
  H        12.0697627954        4.2611314001       33.3248488360
  H        10.9378394963        5.7288727972       33.7598978452
  C        10.4215555073        5.3360181880       28.8192720812
  H        11.8820847213        6.7504640156       29.2281023575
  H        10.4409973456        7.1009026991       30.0770505917
  C        10.8532076736        5.4624893868       27.3549023572
  H        10.4883954275        4.3396105983       29.1999022277
  H         9.2344871051        5.5601659184       28.7553793679
  C         9.8199968006        4.7683655330       26.4852617031
  H        11.7496803175        4.8844643964       27.1522547354
  H        10.9951183612        6.4555978738       27.0993293525
  C         8.6871206684        5.6943117564       26.1163528520
  H        10.2669175617        4.4324455010       25.5122352661
  H         9.6223578498        3.8659817031       27.0908220678
  C         7.5086361440        4.8973132439       25.4939812026
  H         8.2369408418        6.2768058194       26.9746907772
  H         9.0447964748        6.4975466450       25.4671337779
  C         7.1782709134        3.5452328371       26.1021628271
  C         7.8687771565        4.2577414641       24.1701124977
  C         6.2110583145        5.7260281553       25.4717266052
  C         7.3605881139        2.4903323304       25.2404358802
  C         6.7641203363        3.0685270007       27.3648129824
  C         7.7892365993        2.9239104732       24.0098299025
  C         8.2116469906        4.9010271261       23.0024381628
  H         6.4884853467        6.7175985110       24.9388457851
  H         5.9303943566        6.1188775561       26.4476738534
  C         5.1098755716        5.2230419624       24.5499076884
  S         7.0244188202        0.8977301214       25.8691661066
  C         6.5663936543        1.6663711972       27.4131232314
  H         6.5933933010        3.8016872222       28.1037937305
  C         8.1520743799        2.3241000572       22.8052582130
  H         8.1560516708        5.9956635363       23.0181210527
  C         8.5382277671        4.3564455663       21.7747926884
  H         5.2805694306        5.4208836705       23.5115429861
  H         5.0008950784        4.1672390561       24.6838686495
  C         3.7633470774        5.9394697457       24.7161045041
  C         6.1881809099        0.9251524528       28.6218926177
  C         8.5697331543        2.9971598106       21.5981714858
  H         8.2987188232        1.3128424713       22.9064168751
  C         9.0101022750        4.8176260356       20.5843305052
  H         3.1660440625        5.4019645469       23.9326632608
  H         3.8994783175        6.9161856951       24.3778989845
  C         3.0412411993        6.0290242398       26.0773551274
  C         6.0749940217       -0.4957501981       28.8155906034
  C         5.6202885580        1.7072856946       29.7639759102
  C         8.9267274274        2.3765385728       20.2521245514
  C         9.1821842350        3.7453628278       19.7037223978
  S         9.6145808607        6.3103361446       20.1772505872
  H         2.0201567052        6.4369804591       25.8696668419
  H         3.5944834812        6.7290555789       26.6689167121
  C         2.9578187727        4.6317363001       26.7908325931
  N         6.6279757438       -1.4385969537       27.9513587292
  C         5.7287441827       -1.0251290373       30.0423375776
  C         5.2736037934        1.1689925983       31.0439310054
  H         5.3218481262        2.7313773766       29.6071770662
  C         7.8147687840        1.5636214719       19.4577393800
  C        10.2636950421        1.5095238293       20.4408508707
  C         9.6654175387        4.2654536758       18.5215212882
  C         9.8913619668        5.6120133058       18.5756107816
  H         2.5577734200        3.9384426622       26.0127888329
  H         3.9384170209        4.1794488816       26.9135892201
  C         2.1792950523        4.7587676157       28.1271076870
  S         6.5508091251       -2.8637577996       28.6511468430
  N         6.0216232308       -2.3727668023       30.1080721117
  C         5.3213165790       -0.2914382104       31.1958107488
  H         4.9676041085        1.8441027641       31.8401235105
  H         7.7286948486        0.7012855877       20.1605260505
  H         8.3170185806        1.2188319506       18.5464281558
  C         6.5498257835        2.2422259861       18.9880960660
  H        10.5186254931        1.0010409756       19.4834493451
  H        10.0735991068        0.6992476372       21.1073308222
  C        11.4534584332        2.4055261703       20.9582265552
  H         9.8036672196        3.5401749135       17.7048916805
  C        10.3031672821        6.4314404920       17.3689648764
  H         1.6784746630        3.8187347523       28.3587186282
  H         1.4012059875        5.3732870093       27.8683585296
  C         3.0079850525        5.1135704482       29.3342096711
  C         5.0462144869       -0.9815806409       32.3807230119
  H         6.7933840407        2.8357531106       18.2217800442
  H         6.1297404750        2.8292986686       19.8135226400
  C         5.4723749866        1.2529825727       18.6783400020
  H        11.2263017813        2.9618921291       21.8419769163
  H        11.6373633743        3.1659782998       20.2204815452
  C        12.6565832289        1.5588876635       21.2095703248
  C        10.4511618854        7.8728473806       17.2621532899
  C        10.3630654815        5.7487044526       16.0526037542
  H         3.6822997333        4.3558848165       29.6392374744
  H         3.6791734262        5.9788328755       29.1729628636
  C         2.0345664731        5.2520583450       30.5173062255
  H         5.1175568338       -2.0016571929       32.2208412151
  C         4.8851156862       -0.5369424321       33.6774418569
  H         5.1751456961        0.7852427649       19.6087055434
  H         5.9253725029        0.3679481746       18.2326587606
  C         4.4073001555        1.7220012809       17.6717797700
  H        12.5929435560        0.9402012131       22.0629525230
  H        13.0584915781        0.9141006205       20.3788933336
  C        13.8026093452        2.5116530044       21.5486028294
  N        10.2088213848        8.7587203938       18.2977882305
  C        10.7192619060        8.5192854150       16.0964244458
  C        10.5659409772        6.3719676002       14.8266661723
  H        10.1682925249        4.6656831882       15.9903286596
  H         2.5327200453        5.1938533393       31.4919013951
  H         1.4137853499        6.1753479248       30.4528802357
  H         1.3300067696        4.4927274320       30.4694344809
  S         4.7478715586        1.0531604353       34.3529498735
  C         4.8877895670       -1.6806075804       34.6828881665
  H         4.2017171556        2.7609105546       17.4494140535
  H         4.5607985780        1.1874769876       16.7064119277
  C         3.0089119374        1.2865261712       18.1070045166
  H        13.4563592817        3.2573275489       22.2579569435
  H        14.1602889942        3.0584598030       20.6050978013
  C        15.0930284664        1.8610517700       22.0226881583
  S        10.4574145239       10.2788311479       17.8171233834
  N        10.8322894103        9.8902171039       16.2945768590
  C        10.8845826296        7.8821369898       14.8140067657
  H        10.5403611069        5.8574428179       13.8935350701
  C         4.5295898825        0.2303322005       35.9130186344
  N         4.5612185320       -1.1400700974       35.9195266598
  O         5.0011872904       -2.8611315187       34.3803090174
  H         2.2564596721        1.4720037449       17.3360459585
  H         2.6008220243        1.9473798372       18.9195137855
  C         2.8198573445       -0.0957934024       18.7587292810
  H        15.0642395453        1.3553286465       22.9931897280
  H        15.4377861021        1.2237560643       21.1970052559
  C        16.1993673245        2.9839414943       22.1322557319
  C        11.2004751045        8.6691192543       13.6756001827
  S         3.9450793929        1.0017677268       37.3515834922
  C         4.5319805782       -2.0184648267       37.0834087584
  H         3.7487199945       -0.6710871070       18.9346047475
  H         2.2923383369        0.1603469853       19.6432669370
  C         1.8705026991       -1.0200577885       17.9894818862
  H        16.0584217003        3.6444230496       22.9827964880
  H        16.4488881534        3.6048214761       21.2621787534
  C        17.5644837545        2.3790627953       22.5466563189
  H        11.2240929538        9.7584285696       13.7983198092
  C        11.5567120609        8.3429883303       12.3902311249
  H         3.6981337835       -1.8419248568       37.7833302536
  H         4.3308546962       -3.0459370520       36.7585965608
  C         5.8920367691       -1.8318894843       37.7178314624
  H         1.0195743761       -0.4222628595       17.8095794253
  H         1.4878701893       -1.7346708531       18.7337331165
  C         2.3368443592       -1.7983329387       16.7696448228
  H        17.6276249815        1.5058747556       21.9046776218
  H        18.3925060044        3.0803327931       22.3362476372
  C        17.7437074288        1.8185126754       23.8903779225
  S        11.7376577240        6.7532216008       11.7010180101
  C        11.7442475515        9.4255477139       11.3966150764
  H         6.0155976605       -1.0439062095       38.5181462993
  H         6.2335208249       -2.7671757427       38.0898983499
  H         6.5718396336       -1.5361942364       36.8943766532
  H         2.9537378503       -2.6348329103       17.0738156486
  H         2.9812896665       -1.2448550403       16.0842764513
  H         1.5373028950       -2.0866788528       16.1071660287
  H        18.7190612979        1.4742294014       24.1084206277
  H        17.0621288916        0.9339672416       23.9309827685
  H        17.4192225717        2.4908654870       24.7256134123
  C        12.2875630047        7.5648666445       10.2205250959
  N        12.0949522383        8.9342600702       10.1732871561
  O        11.4702731867       10.6015927246       11.6271611671
  S        12.5600939367        6.7751170736        8.6754744672
  C        12.3644910516        9.8111806754        8.9903513211
  H        12.7079676545       10.6743683331        9.4396654830
  H        13.3205323324        9.4966532406        8.5166554483
  C        11.0885354798       10.0529859724        8.1855096109
  H        11.0248062862        9.2959703123        7.4191282371
  H        10.0894405014       10.0559623710        8.7626411827
  H        11.1750894737       11.0011506325        7.6254842265
  H         2.5160142886        3.7739548466       12.6015339250
  C         2.6692235217        2.6876453850       12.6842660799
  H         1.8001276267        2.2612147393       12.1353596791
  C         3.9531717975        2.1393287822       12.0994807084
  C         2.3575325626        2.2916769355       14.0816747607
  C         3.7767023861        2.0338387758       10.6000991135
  H         4.1068286214        1.1188123454       12.5036424253
  H         4.8717855024        2.7243961134       12.4610686152
  H         3.2754048827        1.9565600971       14.5502773811
  H         1.7384583751        1.3984827220       14.1172121679
  H         1.8646367835        3.0116368564       14.7361415123
  C         4.8086956879        1.1524629837        9.8725920069
  H         2.7252443592        1.6858533266       10.3956555732
  H         3.8983992927        3.0064178249       10.2247797876
  C         5.2558182332        1.6949435897        8.4593573955
  H         4.5312215437        0.1280311724        9.7819966350
  H         5.5800226018        1.0731069062       10.5664257991
  C         6.4524086229        2.6748339435        8.6460045971
  H         4.4261951012        2.2015819105        8.0505062189
  H         5.3533379921        0.8294647120        7.8022294276
  C         7.7683957047        2.0231250355        9.0631836397
  H         6.3982301284        3.3498597678        7.8178401659
  H         6.1858885395        3.2828664248        9.4502491004
  C         8.9375502869        3.0017073460        9.1509856290
  H         8.1259871076        1.2336572535        8.4055789933
  H         7.6518765071        1.5555532871       10.0907510897
  C         8.6069195274        4.3355075514        9.7351221215
  C         9.4198619047        3.6706847809        7.8511428806
  C        10.1469997342        2.4296404266        9.8359378422
  C         8.8042013346        5.4117897609        8.9055467583
  C         8.1892758123        4.7238763137       11.0522338421
  C         9.4238489154        5.0113292431        7.7314543505
  C         9.9261031775        2.9967877591        6.7375040904
  H         9.8730439442        1.9677637220       10.7493032649
  H        10.4505732820        1.6370286610        9.1596574943
  C        11.3762007103        3.3057393006       10.0738584550
  S         8.3526455541        6.9651768817        9.6610900963
  C         8.0408558831        6.0741860321       11.1016369922
  H         8.0367019823        3.9647848120       11.7970678288
  C         9.9185943258        5.5963926592        6.5589584769
  H        10.0121732948        1.9281851560        6.7464145659
  C        10.3125032420        3.5998098238        5.5647209557
  H        11.0524997746        4.2856403363       10.5283151086
  H        11.8765623647        3.5512188539        9.0586893700
  C        12.4712066014        2.7634675348       11.0143095296
  C         7.7336239485        6.8485841551       12.3479293147
  C        10.3160122877        4.9388487052        5.4113412204
  H         9.7820261266        6.6263958092        6.6448867988
  C        10.7986414809        3.2210028104        4.3508961774
  H        13.2938790714        3.4884479415       10.9311074392
  H        12.8612487849        1.7716532579       10.7507360113
  C        11.9336736504        2.7227231969       12.4776291228
  C         7.8448999831        8.2223547352       12.6147843584
  C         7.3962319764        6.0263363893       13.5360356783
  C        10.8760347408        5.7033060586        4.2160527466
  C        11.1390365946        4.3473021989        3.6070297950
  S        11.1345738077        1.7179064165        3.6373101006
  H        11.4415919252        3.6622416530       12.6854546825
  H        11.1844029574        1.9315445617       12.6513387566
  C        13.0730325503        2.5468794967       13.5351954661
  N         8.0924249536        9.2492518950       11.6982507594
  C         7.6474885465        8.8252900073       13.8591744500
  C         7.2782455595        6.6232371425       14.8079485253
  H         6.9890940137        5.0627954880       13.4182861970
  C        12.1772033843        6.6534598903        4.4673278805
  C         9.8658063510        6.4614114432        3.4338807246
  C        11.5389694013        3.9688343457        2.2920153008
  C        11.4714287322        2.6045014348        2.1920088621
  H        13.8735123941        3.2769016266       13.3460248653
  H        13.5566916331        1.5554742637       13.5503650786
  C        12.4544572543        2.7676348449       14.9721075161
  S         7.9470686736       10.6811496322       12.3922732128
  N         7.6001716429       10.2163300413       13.8385310039
  C         7.4504731095        8.0780892005       15.0603472275
  H         7.1443193999        5.9678364449       15.6179062266
  H        12.0997766445        7.4144599270        5.2473617675
  H        12.3673972721        7.1481150023        3.5303201484
  C        13.4377785023        5.8901126322        4.8435000406
  H         9.3323727952        7.2577102799        3.9548081124
  H        10.4059653136        6.9986067076        2.6622116248
  C         8.6644200349        5.6585896028        2.8688277513
  H        11.9149266339        4.6872097833        1.6367188395
  C        11.8619319101        1.8996679059        0.9904636661
  H        11.8947271373        3.6575161167       15.1262862026
  H        11.6705407618        2.0612021053       14.9269460223
  C        13.3013062134        2.4554061361       16.1490080351
  C         7.3672077745        8.7605111748       16.3364098067
  H        13.3155406769        5.3627157249        5.7836623623
  H        13.6903998084        5.0491372598        4.0749098419
  C        14.6391722057        6.8437236469        4.9440704669
  H         8.1012192366        5.0962054098        3.6656513860
  H         9.0713817781        4.9445161902        2.1394050950
  C         7.5523308145        6.5004034376        2.3122625388
  C        12.0539396898        0.4990121188        0.7994719555
  C        12.1851913866        2.7599371086       -0.2260607940
  H        14.3446339226        2.7840918462       15.9744001634
  H        13.5297354821        1.3864691247       16.0443110037
  C        12.7796258465        2.8330760147       17.5129263960
  H         7.4416417881        9.8592170064       16.3097375402
  C         6.9287800071        8.2522194605       17.5241387644
  H        14.5268674254        7.3150289076        5.9171145405
  H        14.7817527006        7.5821688966        4.0970030765
  C        15.9920007905        5.9740441828        5.0956572704
  H         7.0108736141        7.1035722765        3.0439084879
  H         8.1250107046        7.2411442937        1.7513459367
  C         6.6152707186        5.7733004571        1.3015650079
  N        11.8537973411       -0.5217338597        1.7734922677
  C        12.2947171484       -0.0482029682       -0.4708608805
  C        12.3858294534        2.1872368948       -1.4583943691
  H        12.1523763601        3.8296590554       -0.2560317674
  H        11.9284518457        2.2144095524       17.7598500631
  H        12.4654014509        3.8920247419       17.4021074746
  H        13.4777568246        2.7040995189       18.3118218907
  S         6.6610281360        6.6545707775       18.0466248045
  C         6.8084901506        9.3207380742       18.5973779473
  H        16.1461262399        5.1777840125        4.3381777694
  H        16.8074639768        6.7263900194        4.8604255253
  C        16.2705890795        5.5263746683        6.5804547312
  H         6.6779756329        4.7342426008        1.4540128737
  H         6.9243531520        5.9903825762        0.2222472944
  C         5.1752653001        6.3119274626        1.5068411076
  S        12.0682779501       -1.9604807455        0.9951751613
  N        12.2714649782       -1.4474868190       -0.5308906216
  C        12.4366586994        0.6923204021       -1.6381229234
  H        12.6270420569        2.7886206084       -2.3426083237
  C         6.4383069436        7.4329135849       19.5846849552
  N         6.4140838890        8.7839023642       19.6613259006
  O         6.9095303501       10.5609564701       18.4467561307
  H        15.9999778775        6.3062475833        7.2406437770
  H        15.6920236249        4.7211059528        6.9888434153
  C        17.7266229976        5.1758496483        6.7209806495
  H         4.4505859597        5.5551011215        1.1151480005
  H         5.0071835541        6.3903068494        2.6228019188
  C         5.0077607262        7.6419437718        0.8971867361
  C        12.6663410132        0.0331604235       -2.8953965700
  S         6.0292233318        6.5538579828       21.0642339436
  C         6.4347337798        9.5674886368       20.9244727331
  H        17.9567164415        4.7745515446        7.6494620232
  H        17.9800891195        4.3373903020        6.1000380439
  C        18.7138753789        6.3521697077        6.4619799122
  H         4.8751340010        7.5485144940       -0.2292770509
  H         5.9489812371        8.2273616295        1.0640851152
  C         3.7337276335        8.2157513715        1.5766759790
  H        12.3533216722       -0.9790167816       -2.8530821022
  C        13.1937657026        0.3703116795       -4.1228947680
  H         5.6992493170        9.1072295726       21.6126461492
  H         6.1015855222       10.6139290628       20.8068044850
  C         7.8104311759        9.5266836341       21.5356241731
  H        18.1902220735        7.2662596348        6.8224738050
  H        18.8349714010        6.5878174030        5.3960786587
  C        20.0645068448        6.1514768499        7.0296286736
  H         3.3704795925        9.0448315858        0.9114586254
  H         2.9348178621        7.4823334579        1.5674782700
  C         3.9140960059        8.7230619283        3.0031263400
  S        13.9683374269        1.7716301687       -4.5547302848
  C        13.3286550060       -0.7574292300       -5.0874718957
  H         8.0414168643       10.4434027694       21.9467869653
  H         8.5350758576        9.5271774497       20.7589028085
  H         7.9393402035        8.7271302751       22.3289592161
  H        20.6715539972        7.0341799509        6.8703984207
  H        19.9885028506        6.0210674092        8.1358065590
  H        20.5709280839        5.3387123515        6.6428851374
  H         4.8203280716        8.5030363576        3.4277839292
  H         3.8513041426        9.8177730577        3.1208195683
  H         3.1879000077        8.1704857273        3.6183225916
  C        14.3576756252        0.9918689108       -6.0606552197
  N        14.0243213529       -0.3238816605       -6.1917679655
  O        12.7796147109       -1.8812104044       -5.0113360346
  S        15.0400304769        1.8154167925       -7.4315855082
  C        14.0603770885       -1.1343424606       -7.3981758614
  H        14.2005435934       -2.1687072779       -7.1483572599
  H        14.9638318443       -0.8389489037       -7.9295392430
  C        12.7662482980       -0.7974794228       -8.2340389258
  H        12.8892081188       -0.9291475240       -9.2998129822
  H        12.3110972532        0.1097881162       -7.9894758761
  H        11.9202672109       -1.4271455526       -7.9574935051
