352
 i =    52200, time =    26100.000, E =        99.1707618741
  H        10.3715622933        4.0236625492       33.0969999349
  C        10.8767123363        4.9546063206       32.9376814361
  H        10.7196110343        5.5990986572       33.8085456382
  C        10.3031904953        5.7036601407       31.7028795134
  C        12.3450233000        4.7931871698       32.9317963927
  C        10.1947103126        4.7799630331       30.5347950849
  H         9.3853993726        6.1364720400       32.0237687690
  H        10.8312615549        6.6128156199       31.4074142903
  H        12.6387579681        4.1052413343       32.1254891537
  H        12.8031103737        5.8334680260       32.7687390186
  H        12.6701161469        4.4043716449       33.8742431935
  C         9.7605780911        5.5593190722       29.3219080083
  H         9.5889141832        3.8972586361       30.7153051580
  H        11.2749556873        4.4084192638       30.3485204151
  C        10.3475804338        5.1392341826       27.9666592567
  H         8.6287819632        5.5754562256       29.3922709517
  H        10.1036474748        6.6299155352       29.4562440646
  C         9.3240815016        4.3672062075       27.1998892759
  H        11.1232792124        4.3962410303       28.1123054291
  H        10.6460963071        6.0237777768       27.3799279455
  C         8.3170495231        5.3150864383       26.4988573821
  H         9.7418154842        3.7355548414       26.3772763968
  H         8.7622924490        3.7967569319       27.9141090321
  C         7.1387292144        4.7244058465       25.6366199292
  H         7.9137929373        6.1744459879       27.1180861000
  H         8.9936148296        5.8652828922       25.8358637171
  C         6.7015110774        3.3913962466       26.1904664834
  C         7.6048502751        4.1105274383       24.3721213716
  C         5.9073231544        5.6886491872       25.4273255322
  C         7.0809628518        2.2968655567       25.4115739517
  C         6.1004266778        2.9618110142       27.3848728473
  C         7.6702562667        2.7488974719       24.2823717227
  C         8.0839478278        4.8396075071       23.2863702931
  H         6.2392113345        6.4568162223       24.7713404058
  H         5.6248666907        6.2832527746       26.2576008250
  C         4.7060807237        5.0800272671       24.7853603602
  S         6.7376169376        0.7664794875       26.1039463583
  C         6.1067526135        1.5790608671       27.4657995536
  H         5.7217252968        3.7208059287       28.0321592672
  C         8.1394362774        2.2492576968       23.1151355659
  H         8.1368607333        5.9270475451       23.2695512525
  C         8.4894416650        4.2878000751       22.1129552936
  H         4.9657766996        4.6687869146       23.9032554385
  H         4.5155322787        4.1799863822       25.3428821528
  C         3.3718334548        5.8235853553       24.6633385761
  C         5.6909639319        0.8541760365       28.6619808250
  C         8.5238543225        2.9569631717       22.0240451962
  H         8.1631997828        1.2333929152       22.9543879486
  C         8.8758448418        4.6990119784       20.8674037470
  H         2.6611828510        5.4022498216       23.9776437553
  H         3.6780620459        6.8165535530       24.2734542995
  C         2.7155189890        6.0778164728       26.0701277473
  C         5.7400287733       -0.5592235073       29.0112882067
  C         5.1044280330        1.6831401478       29.7726981453
  C         8.9821537793        2.2705613228       20.7447093444
  C         9.2214201661        3.6332809157       20.0422835487
  S         9.1861412131        6.2073950416       20.1827070291
  H         2.0208367267        6.8414630761       26.0013160896
  H         3.3714970960        6.4682983213       26.8158398629
  C         1.9650427171        4.8402537307       26.5814749570
  N         6.1899588821       -1.5707664107       28.1472056961
  C         5.4529389245       -1.1189627103       30.2467876862
  C         4.8437666391        1.0929010457       31.0417829899
  H         4.8636367003        2.6831988534       29.5955479981
  C         7.8355112514        1.3560063495       20.1034357683
  C        10.2936493165        1.5621307387       21.0102041176
  C         9.7130779053        4.0797188338       18.8060837417
  C         9.7603597496        5.4736857955       18.7383696035
  H         1.0132571129        4.6327505345       26.1611501349
  H         2.6397347107        4.0054798181       26.5632085609
  C         1.5944346299        4.9976532761       28.0895307242
  S         6.0492768190       -3.0680491830       28.7766901665
  N         5.5386022891       -2.5108755538       30.2582062555
  C         5.1070669872       -0.3778768892       31.3571570289
  H         4.6011152618        1.7809978464       31.8264125802
  H         7.4710559691        0.6743536385       20.9734495271
  H         7.9757994527        0.8786366800       19.1180740837
  C         6.5687754562        2.1329084708       19.8257250755
  H        10.4581406340        1.0757418431       20.0654777653
  H        10.1586455161        0.8371794032       21.8258397110
  C        11.4486346222        2.4599155509       21.3777131013
  H         9.9908094891        3.3179519273       18.0915540881
  C         9.9724414893        6.2214589791       17.4571074876
  H         1.0120669883        4.1352655549       28.5078376873
  H         1.0576654813        5.9492103532       28.3336218148
  C         2.9079759904        4.8819553847       28.9648403817
  C         5.0879340336       -1.0977559755       32.6379347612
  H         6.7569330148        3.2195062727       19.7243362928
  H         5.8157346993        2.0181513425       20.6099423535
  C         5.9629091961        1.6450354694       18.4907299945
  H        11.2808181363        2.9100230358       22.3409840448
  H        11.5909656441        3.1846954216       20.5911521195
  C        12.7325584691        1.5563612246       21.5223619939
  C         9.9999956323        7.6313421527       17.2625083466
  C        10.0739163518        5.4287949229       16.1890487577
  H         3.3935637543        3.9342660127       28.9070295248
  H         3.6615033430        5.5377673335       28.5268494914
  C         2.7467962650        5.2614507609       30.4056712462
  H         5.5526402080       -2.0580265378       32.6294425412
  C         4.5992265055       -0.6613269146       33.8476462588
  H         5.7304234389        0.6054219974       18.5741114152
  H         6.6744610389        1.8162444215       17.6527845860
  C         4.5171950334        2.2259197579       18.3245360349
  H        12.5066097383        0.8175489607       22.2816602670
  H        13.0248532636        0.9849263131       20.6369555574
  C        13.9058288132        2.4499908748       21.9456501149
  N         9.7963141534        8.5325354265       18.3567434474
  C        10.2763154943        8.2503585175       16.0768125447
  C        10.3851746345        6.0554402003       14.9419650760
  H         9.9124170747        4.3937147803       16.2321372892
  H         3.7071087623        5.3209331088       30.8406547996
  H         2.1975996155        6.1897127945       30.4623978106
  H         2.0626878299        4.5865955973       30.9372549503
  S         4.0283879769        0.8914643714       34.2848766749
  C         4.6575004297       -1.7011676583       34.9361011196
  H         4.3834451311        3.1538371101       18.8981124206
  H         4.3068213175        2.7172515187       17.3940769060
  C         3.5023896447        1.1995077499       18.7361509972
  H        13.7555310612        2.6858467163       22.9708143892
  H        13.9403755468        3.3587942735       21.3445292835
  C        15.1938269592        1.7329112210       21.8564662583
  S         9.7369721593        9.9922119078       17.7756487301
  N        10.2488329265        9.6346906687       16.2101271313
  C        10.5464063390        7.5185589114       14.8543450268
  H        10.2667530147        5.4595155948       14.0572604404
  C         3.9179243744        0.2433172542       35.9326061622
  N         4.2036084375       -1.0479513373       36.0333139813
  O         5.0408007359       -2.8421707572       34.8721615021
  H         2.6869418150        1.7473639158       19.1047707522
  H         3.8440243142        0.4999485012       19.5468348635
  C         3.0382559638        0.2586250837       17.6239406302
  H        15.2231339397        1.1371948924       22.7886212257
  H        15.1387536060        1.1192543365       20.9920808355
  C        16.4695489365        2.5657790984       21.8915275948
  C        10.7305522029        8.2394712537       13.6199195183
  S         3.3644918414        1.0700844306       37.4302417384
  C         4.2079420299       -1.7970094771       37.2934409117
  H         2.5065499449        0.8568839996       16.8971859739
  H         3.9585428805       -0.1247231542       17.0769874516
  C         2.0155375801       -0.7552080499       18.1870277613
  H        16.3379239615        3.5068946814       22.5019609503
  H        16.7680535175        2.9372960821       20.9414875440
  C        17.5267809390        1.6836842474       22.6017871751
  H        10.3916330728        9.2865527802       13.7319141570
  C        11.1789589631        7.9574457936       12.3449609869
  H         3.5114977865       -1.4907133699       38.0056758472
  H         4.0351276157       -2.8323019472       37.1785484976
  C         5.5801967154       -1.5928214332       37.9413880691
  H         1.1710330743       -0.2268499053       18.5531200988
  H         2.4291469860       -1.3115477816       19.0049440981
  C         1.5771561789       -1.7483575849       17.0837370152
  H        17.2877900842        0.7106449925       22.1969559843
  H        18.6694447690        1.8636755980       22.4279464263
  C        17.3795099773        1.7128209157       24.0841154160
  S        11.7845947017        6.5205950672       11.8069784790
  C        11.1315325980        9.0955748000       11.3847604871
  H         5.7872185056       -2.3502665874       38.6995014696
  H         6.2659645004       -1.8336920045       37.1393949911
  H         5.7242976341       -0.5834686267       38.2129198003
  H         1.2104981578       -2.6881859743       17.6576466089
  H         2.3601902259       -2.0747461116       16.4305591920
  H         0.6973495451       -1.2300615450       16.6531917506
  H        18.2731773269        1.9515070992       24.5986733816
  H        16.8932351473        0.8591042140       24.5323144004
  H        16.8011600295        2.5927269989       24.3132806668
  C        11.9926211917        7.2755273795       10.2452816996
  N        11.7501904939        8.6431972469       10.2856217187
  O        10.6104366651       10.1382339137       11.6008298592
  S        12.8963731659        6.5435342624        8.8988404880
  C        11.9693138934        9.4796580714        9.1009372320
  H        12.0306319800       10.5110083578        9.4127567899
  H        12.8726046667        9.2236947176        8.5237111467
  C        10.7825789809        9.3146685279        8.0905419768
  H         9.7376582456        9.3461132603        8.4441525057
  H        10.9314257942       10.0029719178        7.3458892053
  H        10.7946852015        8.3682206784        7.6065822859
  H         4.4088863724        1.0132088696       13.0430159199
  C         3.8531234609        1.9010911379       12.8335318905
  H         4.4775647595        2.7947311995       12.9589430151
  C         3.2890122979        1.8593913312       11.4590698826
  C         2.6466678951        1.9501037672       13.7950534719
  C         4.3070871981        2.2173276064       10.4661082303
  H         2.5475025604        2.6474671511       11.4591325840
  H         2.8948617112        0.8573132873       11.1985391043
  H         2.2008656987        2.9436547997       13.8531704772
  H         3.0672972767        1.8440747776       14.7824494440
  H         1.9823975859        1.0706443204       13.7935487659
  C         4.9500111819        1.0508556791        9.7348376769
  H         3.9971898965        3.0277713010        9.8693316785
  H         5.0242355299        2.7163376714       11.0830544352
  C         5.6343750301        1.4402807079        8.4307018281
  H         4.2066179365        0.2747478085        9.5524297036
  H         5.6688672403        0.6525988941       10.4147128549
  C         6.8559837685        2.3884204847        8.5670173034
  H         4.9285349149        2.1669398180        7.8815468393
  H         5.9022847772        0.6107701166        7.7559688997
  C         8.0569253708        1.6577185123        8.9680319255
  H         6.9302477036        3.0778608508        7.8468882988
  H         6.4709062939        2.9404048015        9.3873682849
  C         9.2716013696        2.5886817133        9.1519981219
  H         8.3019248608        0.8783261080        8.3135740386
  H         7.9306918083        1.2245940792        9.9164699500
  C         8.8525422806        3.8975160773        9.8608709549
  C         9.6242141535        3.3714608574        7.8973876493
  C        10.5101901272        2.0057693382        9.9605963883
  C         8.9261733449        5.0139145365        9.0614882115
  C         8.3634121170        4.1930980893       11.1777544721
  C         9.4633523472        4.6765866183        7.8280316754
  C        10.1386996487        2.7958380251        6.7137820042
  H        10.0829145723        1.5275992393       10.8347626293
  H        10.8650641915        1.1442909185        9.4352906145
  C        11.6984715932        2.8942623918       10.1911999679
  S         8.4212379146        6.4400143947        9.8315877274
  C         8.1181691935        5.5672619205       11.2566590617
  H         8.2065781789        3.4180040097       11.9505017954
  C         9.8757376122        5.3912822219        6.7283632270
  H        10.1637815969        1.7140055423        6.6886429678
  C        10.4341000360        3.5113092039        5.5530897761
  H        11.5887448335        3.9369757613       10.4875918749
  H        12.1323015540        3.0054228419        9.1635439948
  C        12.6924217914        2.2745498972       11.2412471529
  C         7.6097487833        6.2557090520       12.5061694078
  C        10.3898949681        4.8436602829        5.5426257555
  H         9.7171792700        6.4455954150        6.6758375420
  C        10.9067474320        3.2145932610        4.2835134758
  H        13.7912538374        2.4925743496       11.0721072320
  H        12.6339045946        1.2474061564       11.0381548705
  C        12.1766018661        2.6040639895       12.6043209730
  C         7.5122522959        7.6473963497       12.7559192127
  C         7.4357452473        5.4375661152       13.7073355846
  C        10.7857109413        5.6653678421        4.2992411520
  C        11.0413565597        4.3563818446        3.5237458908
  S        11.1366385655        1.7544166872        3.4496604358
  H        12.3018315986        3.6621653616       12.8087927128
  H        11.0836783625        2.5847105478       12.6140392936
  C        12.6929384882        1.6806035748       13.7937613802
  N         7.6309887836        8.6457138661       11.7665248417
  C         7.2074321870        8.2372792906       13.9467227545
  C         7.1754895413        6.0699635777       14.9152305008
  H         7.2746433402        4.4411975219       13.6374919747
  C        12.1048258051        6.4719777276        4.4576782763
  C         9.6226087869        6.4255460327        3.5750338616
  C        11.4872982978        3.9729522897        2.1787722407
  C        11.6199409159        2.6407496386        2.0711596076
  H        13.7175965519        1.4364367588       13.7830755396
  H        12.0188678359        0.7969308558       13.7179317072
  C        12.4643602645        2.3325405883       15.1810443978
  S         7.6376353471       10.1041908508       12.4082782738
  N         7.3405674866        9.6269180759       13.9162577635
  C         7.0634628954        7.4946402010       15.0903447478
  H         6.9665884806        5.3736623182       15.7123444663
  H        11.9932619892        7.2633256142        5.1815389897
  H        12.2555327970        7.0170727575        3.5488981900
  C        13.2851130998        5.5455414432        4.6823334479
  H         9.2681709474        7.1083723862        4.2608767496
  H        10.0452639467        6.9023278664        2.7117240895
  C         8.5318050305        5.4952303781        2.9935667668
  H        11.6663205284        4.7306064764        1.4247366155
  C        11.8236807748        1.9777493760        0.7571084771
  H        12.0107600926        3.3147080806       15.0570466016
  H        11.6528379944        1.8595453161       15.7649442671
  C        13.6030547132        2.3142873618       16.1530298024
  C         6.6423214578        8.1311440087       16.3135013973
  H        12.9155776947        4.9041117823        5.5445410552
  H        13.5604870572        5.0552028857        3.7949212486
  C        14.4741621113        6.3970122120        5.0412898469
  H         8.0902115213        4.9005807496        3.7964572495
  H         8.9147175353        4.9340741575        2.1398048645
  C         7.2738301305        6.3755428852        2.4839114409
  C        11.8719423639        0.5769464251        0.5134844354
  C        11.9710567400        2.7764635597       -0.4882607350
  H        14.4054136064        2.8863878446       15.6280318991
  H        13.9765876888        1.2413947626       16.2189804047
  C        13.3200838884        3.0358922373       17.4494335152
  H         6.5712190243        9.1467797149       16.2608445849
  C         6.3480603105        7.6738963295       17.6147356170
  H        14.1244972290        7.1292844503        5.8689843171
  H        14.8120541496        7.0261902883        4.2088228668
  C        15.6395588417        5.5582929269        5.6631524914
  H         6.9133384701        6.9855913619        3.2752992103
  H         7.5901785862        7.0018783089        1.6994059042
  C         5.9900700933        5.6144784704        2.1645277455
  N        11.6485353271       -0.4192490496        1.4854405267
  C        12.1291787354       -0.0606341626       -0.6893998722
  C        12.2337116382        2.1423020083       -1.7192767178
  H        11.8481983297        3.8903306607       -0.4413081626
  H        12.3424238216        3.5560903077       17.5229642465
  H        14.0917493454        3.7412014551       17.5874593265
  H        13.4286921095        2.1940220789       18.2039116102
  S         6.2953554166        6.0480133850       18.1300042289
  C         6.1942334058        8.7343565064       18.6363878239
  H        15.2781233236        4.9120212557        6.4741880310
  H        16.1498529664        4.8972798922        4.9336810586
  C        16.8242820506        6.2892782998        6.3616267226
  H         5.6615933979        5.1254887830        3.0256798363
  H         6.3649235552        4.9570322748        1.3808048106
  C         4.9383412745        6.5102781006        1.6046860961
  S        11.8142578236       -1.8788026419        0.8824950533
  N        12.0639309436       -1.4208927359       -0.6337386597
  C        12.3672122548        0.6796990156       -1.8497799070
  H        12.4062340715        2.7189732270       -2.5814384363
  C         6.0447635168        6.7510772233       19.7729426731
  N         5.8870452685        8.1269123853       19.8058761901
  O         6.3207373968        9.9744124398       18.4852450004
  H        17.2673387258        7.0935766825        5.7119658209
  H        16.3835255559        6.8490729569        7.2269810097
  C        17.8362469925        5.2497633892        6.8242910126
  H         5.3542159648        6.9324590401        0.7145881219
  H         4.1315826910        5.9096994095        1.1855581555
  C         4.2298751298        7.4979334946        2.5913998045
  C        12.6115237542        0.0046087786       -3.1348328477
  S         5.5827615243        5.7298794717       21.0971300832
  C         5.7313725071        8.8193155844       21.0400950206
  H        17.5373448142        4.9610946201        7.7912931925
  H        17.8179756126        4.3789038492        6.1404666524
  C        19.1956511366        5.8874995027        7.0877883646
  H         4.8076316005        7.8267719102        3.4566859892
  H         3.4370170501        6.8625239273        2.9972217180
  C         3.6469623779        8.7361295871        1.9171310489
  H        12.2362071536       -1.0060108186       -3.1972704952
  C        13.1480740249        0.4414171786       -4.3339300473
  H         5.1215954075        8.2122311528       21.6846309119
  H         5.3050524865        9.7917153649       20.8645349895
  C         7.0294474928        9.1020706390       21.8224009880
  H        19.6858228059        5.4827697877        7.9220457803
  H        18.9323773748        6.9155591450        7.4790459774
  C        20.1163322792        5.9057771264        5.8937041193
  H         2.7722856054        8.3310968221        1.3904592209
  H         3.1113369202        9.3923469652        2.6826697907
  C         4.6035668813        9.5227248643        0.9222336885
  S        13.7841117280        1.9868890021       -4.7259387871
  C        13.2706365232       -0.6163679035       -5.4031927877
  H         7.2604350527        8.4708638175       22.6628505964
  H         7.2553299825       10.1531884902       22.1412041189
  H         7.8957410908        8.8096163289       21.2127847506
  H        20.7991783208        6.7570602064        5.9586673099
  H        20.6548926836        4.9342774563        5.7579798579
  H        19.6214625507        6.0258671137        4.9559733141
  H         5.4631542356        9.9995057203        1.4186149787
  H         4.9758158911        8.9185906336        0.0173756900
  H         4.1351784689       10.4680091663        0.6186876702
  C        14.2511033404        1.2639605473       -6.3152466801
  N        13.9461263952       -0.0689362310       -6.4152409924
  O        12.8979131846       -1.7732988821       -5.2533829084
  S        15.0177565448        2.0042872995       -7.7534020850
  C        14.0090517076       -0.7907750861       -7.6791008204
  H        14.1424647810       -1.8707184265       -7.4449070425
  H        14.9986644373       -0.4596182864       -8.1611608973
  C        12.7493888182       -0.5692647883       -8.5229602762
  H        12.9915294922       -0.4323176128       -9.5951842409
  H        12.1546371875        0.2558167135       -8.1059008236
  H        12.2318340562       -1.5431665570       -8.4263294230
