352
 i =   105100, time =    52550.000, E =       100.1956370474
  H        10.1261756371        4.8085819085       31.8891269620
  C        10.7693478537        5.6241913625       32.1946024885
  H        10.0283321165        6.4008964655       32.3754901316
  C        11.7087221909        5.9436958025       31.0216319463
  C        11.4928139989        5.0594141513       33.4045651217
  C        10.9611144975        6.1343093565       29.6730062384
  H        12.3043467032        6.8030053704       31.3085154401
  H        12.4947863502        5.1904851221       30.8947845395
  H        10.9439624140        4.1756774016       33.8810349114
  H        12.4769544084        4.6611956006       33.1970592071
  H        11.5173969749        5.8452742822       34.1722626524
  C        10.8149468391        4.8713313324       28.8123869542
  H        11.6417468097        6.8889714076       29.2055928956
  H        10.0035748205        6.6352000945       29.8788919041
  C        10.9064054716        5.4525071018       27.3589949500
  H        11.6358808089        4.0390477743       29.0463752511
  H         9.8459304953        4.4371547303       28.9270181842
  C        10.0202041758        4.7652848357       26.3126904011
  H        11.9117105600        5.5311076838       27.0235409335
  H        10.6021014335        6.5275368328       27.2940086053
  C         8.6234033351        5.4888142582       26.1801290383
  H        10.6506697040        4.6273513365       25.4203968883
  H         9.8147835975        3.7576722713       26.6721400202
  C         7.4942797987        4.9010986182       25.3635726752
  H         8.2620175507        5.6291344761       27.1507954406
  H         8.8031540720        6.5195495269       25.8869674038
  C         7.1642447159        3.5846645870       26.0336876768
  C         7.9251374248        4.1907172794       24.0986066776
  C         6.2574042384        5.8830565403       25.2921945702
  C         7.4105351058        2.4546174606       25.1932983048
  C         6.5662647164        3.1830818522       27.2321113150
  C         7.9091690744        2.8617145430       23.9726760161
  C         8.4867613694        4.8191399001       22.9847903805
  H         6.3694799801        6.6581560825       24.5915468648
  H         6.0385065688        6.5130432391       26.2000325094
  C         4.9862630388        5.1460858174       24.8351072893
  S         7.1871602626        0.9707472288       25.9511584250
  C         6.4873675614        1.8062259081       27.3158988059
  H         6.2946224865        3.9269609447       27.9368015165
  C         8.4364107854        2.2040431126       22.8506264787
  H         8.4535186294        5.8940738722       22.9439247939
  C         8.8988687711        4.2068192964       21.7884454525
  H         5.1145780682        4.9174656010       23.7637360333
  H         4.8378075054        4.2118085157       25.3970347840
  C         3.7977295410        6.0451574228       24.9524836423
  C         6.1461197120        0.9968040488       28.5443152469
  C         8.7855269748        2.8539244737       21.6593862868
  H         8.4113704514        1.1625033970       22.8734675501
  C         9.4428701985        4.6103790993       20.5943454045
  H         3.1012577803        5.7586091438       24.2331743907
  H         3.9871763464        7.1327182026       24.7093509947
  C         3.1877962918        6.0630830663       26.3826302218
  C         6.1864105723       -0.4096091168       28.7556909387
  C         5.7724577275        1.8213756559       29.6985782535
  C         9.2799072519        2.2373779003       20.3425576616
  C         9.5764558899        3.6078009130       19.6904024304
  S         9.6379679091        6.1885571577       19.9529090582
  H         2.7179712429        6.9909043983       26.5228099098
  H         4.0254544202        5.9670035407       27.1000484054
  C         2.1749890657        4.9093791897       26.6199711101
  N         6.4382106832       -1.3295876777       27.7459533111
  C         5.9799682302       -1.0462426980       29.9354414831
  C         5.4934785972        1.1581880870       30.9188971181
  H         5.6185503705        2.8702901449       29.7217010608
  C         8.1775110404        1.3994568353       19.6873752033
  C        10.6697659364        1.4742830939       20.3812785861
  C         9.8218814813        4.1357885420       18.4269071352
  C         9.8749380376        5.5144023202       18.3837884583
  H         1.5116403642        4.8241469119       25.7863534675
  H         2.6901544560        3.9014022336       26.4286479293
  C         1.3161709122        4.8336660555       27.8546715828
  S         6.6025211671       -2.7768333343       28.3886195877
  N         6.3119253698       -2.4085127417       29.9359276954
  C         5.7065669596       -0.3020990482       31.1213908284
  H         5.0011549607        1.6822564063       31.7251925084
  H         8.0024256103        0.5939875815       20.4036454817
  H         8.7019672343        0.9602324008       18.7993847442
  C         6.8717796487        2.1691200297       19.2634438032
  H        10.9591794532        1.1410599862       19.3816043142
  H        10.6039590722        0.4932162008       20.9191553053
  C        11.8374740559        2.2489139615       21.0065125472
  H        10.0204075736        3.4254738076       17.5891501917
  C        10.0810144573        6.3509780256       17.1296227727
  H         0.8091649619        3.8853769814       28.0490066248
  H         0.5733638318        5.7082572508       27.9195263299
  C         2.2468271613        4.8768132598       29.0723528026
  C         5.5444874912       -1.1072066969       32.3457224072
  H         7.0949612536        2.7872201807       18.3166210493
  H         6.5308285108        2.8049900558       20.0101416350
  C         5.7615117145        1.1613683729       18.9366540953
  H        11.4696849273        2.7173874172       21.9530991654
  H        12.0726481929        3.0956966062       20.3428945265
  C        13.1111191350        1.4613558082       21.1080675644
  C        10.1392809717        7.7793905294       17.0511986834
  C        10.2177021483        5.6762986012       15.8501915140
  H         2.9631133833        4.0247261575       29.1284298797
  H         2.8808592174        5.7417460829       29.0519644218
  C         1.5445946254        4.9261124403       30.4106041576
  H         5.6670277075       -2.2008866117       32.2754948902
  C         5.2648425759       -0.7901882391       33.6467440742
  H         5.3668074912        0.5988244248       19.7869260648
  H         6.1871450665        0.3773286651       18.3006736225
  C         4.6842862474        1.8218614695       18.0253675233
  H        13.0736848355        0.6358047325       21.9145249262
  H        13.4789794773        1.0654344951       20.1511081670
  C        14.1592054147        2.3969258310       21.5764669346
  N         9.9887043931        8.6048294600       18.1462531343
  C        10.4832164115        8.4800948344       15.9201026408
  C        10.5102550945        6.3788951511       14.6975704204
  H        10.1873396091        4.6097170640       15.7773495909
  H         2.1401819453        5.1742951247       31.2808941500
  H         0.7555409862        5.6023835833       30.2980899478
  H         0.9252349410        4.0648603813       30.7094885620
  S         4.8723170000        0.7541376422       34.1591384505
  C         5.1327408073       -1.8872381878       34.6871968987
  H         4.4127908086        2.8732126431       18.2152950002
  H         5.0058254474        1.7181745070       16.9993285907
  C         3.3614363000        1.1798602536       18.1430573578
  H        13.8405792454        2.9154521564       22.5187880145
  H        14.4185558965        3.1282612186       20.8736829235
  C        15.4719047655        1.6673687469       21.7237764370
  S        10.0697212513       10.1945432366       17.6694605079
  N        10.5535287918        9.8633704243       16.1444074675
  C        10.6766352173        7.8681632640       14.7274913978
  H        10.6708726618        5.8293441359       13.8168525084
  C         4.6204635768        0.0486346959       35.8131350345
  N         4.7822969031       -1.2908025225       35.8609319952
  O         5.2925577156       -3.0575599444       34.5674941111
  H         2.6615339940        1.5785295467       17.4002912084
  H         2.9695162667        1.6153636015       19.0253947471
  C         3.3575215449       -0.3305672966       18.2929843151
  H        15.3086456452        0.9879211777       22.5621014783
  H        15.5919425657        1.1248173403       20.8060603565
  C        16.5721527371        2.7337548031       21.9323883953
  C        10.9372087186        8.7042163777       13.5443492373
  S         4.3667089877        0.9663766601       37.3309153225
  C         4.7086642215       -2.0531035414       37.1007838040
  H         4.1874466752       -0.8295692210       17.8105266245
  H         3.4949961997       -0.4816284864       19.4044388994
  C         1.9674370138       -0.7682996610       17.7616601208
  H        16.1207453754        3.5559137488       22.4782635336
  H        16.7835340483        3.0024687371       20.9074841232
  C        17.7920972720        2.2978242739       22.7594241669
  H        10.7712730807        9.7488116411       13.7608683523
  C        11.3843419290        8.4276468554       12.3135304807
  H         4.1149348498       -1.4967274263       37.8333525300
  H         4.1452010604       -3.0175484707       36.9359993613
  C         6.0748087262       -2.4050376733       37.7996074046
  H         1.1378698044       -0.1110876226       18.0285687082
  H         1.6815310257       -1.6574866060       18.2809387854
  C         1.8568899235       -1.0801740669       16.2020182564
  H        18.3277166315        1.4512824416       22.2778919171
  H        18.5137177318        3.1382370276       22.8128880410
  C        17.3757968145        1.9297542530       24.2328818109
  S        11.8735097821        6.8925285120       11.7873532998
  C        11.5308222759        9.5395985548       11.3153978030
  H         6.5453377043       -1.4893029073       38.0744578483
  H         5.8576384729       -2.9528140070       38.7820965531
  H         6.8087148948       -2.9883516554       37.2193194891
  H         2.4461127287       -1.9705157647       15.9850941233
  H         2.1693712123       -0.2409479479       15.6093132327
  H         0.7903473132       -1.2453883900       16.0824926961
  H        18.3922373832        1.8723990693       24.7667231392
  H        17.0097775561        0.9273526376       24.2408339333
  H        16.7766042299        2.6391031640       24.8116104693
  C        12.2634846454        7.6123146624       10.2096258994
  N        12.0403654793        8.9649481139       10.2072235284
  O        11.3257623562       10.7495044460       11.5330938267
  S        12.8759106013        6.7539351092        8.8604198670
  C        12.2487330861        9.8064085444        9.0252249888
  H        12.4223430026       10.8918652270        9.3426055265
  H        13.1619552559        9.6317430283        8.5327022662
  C        10.9615439044        9.5698152082        8.1303949230
  H        10.1535236587        9.7771121333        8.8889882047
  H        10.9698366213       10.1670446802        7.2477212947
  H        10.9001898766        8.4711605140        7.8348492685
  H         2.2902537472        3.4434151891       12.8362305392
  C         3.0378574201        2.6104941383       12.9529058633
  H         2.4490011331        1.6661928331       12.7885183115
  C         4.2924582620        2.5286670455       12.0703374784
  C         3.3955818604        2.5585322834       14.4949362178
  C         3.7704595919        2.3876756806       10.6688137079
  H         4.9491760044        1.6465897865       12.3278174703
  H         4.9390408354        3.3969783420       12.2301983325
  H         4.0942501389        3.3438995687       14.7906498351
  H         3.9526561233        1.7049256243       14.8352115875
  H         2.5137047953        2.5454346639       15.1278025106
  C         4.6982144212        1.4887474909        9.7639218944
  H         2.7516613533        2.0822738718       10.6779595937
  H         3.8692354374        3.3920912561       10.1616701910
  C         5.1959257732        2.0401477608        8.3991987027
  H         4.3387598678        0.5226599434        9.4766876549
  H         5.5225157774        1.1425994933       10.4008369805
  C         6.3859891240        2.9928629767        8.5444798513
  H         4.3762587723        2.5764382157        7.8296676104
  H         5.3504635090        1.2073354635        7.6775715123
  C         7.6771571536        2.2583006152        8.9594110694
  H         6.7042728931        3.4480803589        7.6228972006
  H         6.0440303128        3.7184964024        9.2931124873
  C         9.0161562033        3.0700589762        9.1849556611
  H         7.9359677238        1.4847737549        8.2048094002
  H         7.5053399749        1.7609994879        9.8770606268
  C         8.6787648145        4.4450635062        9.8570940979
  C         9.5357260540        3.7743269273        7.9626275216
  C        10.1534198802        2.2709403699        9.9177316228
  C         8.9837518851        5.5618934933        9.1183599153
  C         8.2790232427        4.8695443668       11.0907908871
  C         9.4812525936        5.1474549375        7.8765308098
  C        10.1678533011        3.2564595786        6.8804431189
  H         9.8533853661        1.7878893629       10.8551614668
  H        10.5220298723        1.5159290614        9.2320531471
  C        11.3898519736        3.1773056285       10.2548698877
  S         8.6959476867        7.1528798848        9.8004617762
  C         8.1996511624        6.2908533485       11.1991706794
  H         8.1749416803        4.0934607510       11.8272171050
  C         9.8853546638        5.8419361019        6.7447052212
  H        10.2450185327        2.2207248594        6.8859440237
  C        10.5395807926        3.8908284425        5.7167344099
  H        11.0195139415        4.1378065188       10.6417856942
  H        11.9708323689        3.3823939247        9.3739220941
  C        12.3406810515        2.6312868063       11.2757909978
  C         7.7189678004        7.0683917392       12.3944194351
  C        10.3852729795        5.2233979460        5.6073502870
  H         9.8750089657        6.8538966812        6.6273601284
  C        10.9175486181        3.4148217353        4.4863578156
  H        12.9218086437        3.5386928643       11.2732748315
  H        12.8044642779        1.6709612636       10.9889019492
  C        11.9843924358        2.5580989158       12.7294902919
  C         7.8316782864        8.4445036910       12.6471147676
  C         7.2642288374        6.2594633413       13.6114185986
  C        10.7051699846        5.8659097739        4.3199488566
  C        11.0880481962        4.4981167241        3.6576207572
  S        11.1838854368        1.8767805325        3.8075641610
  H        11.6056365695        3.5847925926       12.9410282445
  H        11.1870356994        1.8356725857       12.8148915321
  C        13.1603077258        2.2790866599       13.6138766558
  N         8.2431790189        9.4001313807       11.7347465364
  C         7.5700719826        8.9351244546       13.8935130837
  C         7.0437726646        6.8271900432       14.8256837201
  H         7.2589554564        5.2012118670       13.5172311397
  C        11.9778231209        6.7423415397        4.4338826762
  C         9.5508094988        6.4848821944        3.4865960476
  C        11.4853664777        4.0717634129        2.3629350731
  C        11.5605857791        2.6685909293        2.2660590699
  H        13.9669785490        2.9106219910       13.2668554755
  H        13.4451861292        1.2604509063       13.6813505559
  C        12.8245383791        2.5900594438       15.0898970198
  S         8.1895543185       10.8844654429       12.4570257657
  N         7.6672764441       10.2966961743       13.9247167744
  C         7.2225054926        8.2255758376       15.0781593103
  H         6.8356023197        6.1796788627       15.6314236164
  H        11.6795900811        7.5062697059        5.0963727672
  H        12.2533375418        7.2216066229        3.5074515294
  C        13.1942354728        6.0941022694        5.0948690272
  H         9.2177697194        7.3833024024        3.9980074610
  H        10.0718722803        6.8931269564        2.5951386999
  C         8.3926092885        5.6195702533        3.0432679319
  H        11.5609817418        4.8213234106        1.6168115539
  C        11.8392677343        1.8178703903        1.0644051340
  H        12.3926218313        3.5805911792       15.3100336953
  H        12.0216086513        1.9514083723       15.4797636176
  C        14.0116770658        2.3737178112       16.0601330769
  C         6.9696368136        8.8575037085       16.3297939328
  H        12.8934317057        5.6811209212        6.0916479408
  H        13.4196661354        5.2707353698        4.5063814767
  C        14.4571659529        6.9475761077        5.4075979619
  H         7.9537564522        5.0786137340        3.8733603800
  H         8.7023146457        4.9277089630        2.2386364901
  C         7.3352439274        6.5451532116        2.4417360031
  C        11.8579985546        0.4303030644        0.9404951094
  C        12.1410443716        2.4971421050       -0.2517431638
  H        14.7988061286        3.0528655028       15.8539647829
  H        14.4502154916        1.3923357228       15.9676069508
  C        13.4894190811        2.6286264764       17.4809404554
  H         7.3032899058        9.8331398032       16.3262467253
  C         6.6517835857        8.4031096563       17.6131331501
  H        14.2947456528        7.4601176093        6.3442881436
  H        14.4658769638        7.7066981664        4.7145694643
  C        15.7818790138        6.1179977854        5.3076213566
  H         6.8697334633        7.1151678451        3.2385649221
  H         7.8782454267        7.1762722453        1.7362019919
  C         6.1615655883        5.8662632078        1.6592190519
  N        11.6516775843       -0.4044312506        2.0278307861
  C        12.1516639659       -0.2173948431       -0.2797376749
  C        12.3250477464        1.8878848108       -1.4923153826
  H        12.0918315607        3.5188954599       -0.2256680342
  H        12.8531564347        1.8077862542       17.8521726385
  H        12.9652835878        3.5605184136       17.5549983931
  H        14.3952970381        2.5700488297       18.1138935551
  S         6.4176501276        6.7468207726       18.0698329549
  C         6.5042027236        9.3457133477       18.7038029090
  H        15.7587422356        5.4413101273        4.3852720062
  H        16.6110257983        6.7975718931        5.0715869711
  C        16.2040174369        5.2968860874        6.5492356605
  H         5.7988750754        4.9367256063        2.2277127052
  H         6.4965661619        5.5832209992        0.7000710714
  C         4.9546571200        6.8162562967        1.4284744220
  S        11.7009867745       -1.9371152823        1.4391544685
  N        12.1334448804       -1.6068653196       -0.0961462936
  C        12.3860560241        0.4005087440       -1.5460957837
  H        12.3435559643        2.4605939652       -2.4117657448
  C         6.1510644841        7.3096143838       19.7056383940
  N         6.2967531960        8.6833175940       19.8254717745
  O         6.5499130160       10.5531190609       18.5498427992
  H        16.0363203671        5.9871995653        7.3276944350
  H        15.7008369595        4.3934715549        6.7483117024
  C        17.7274104594        4.9805493402        6.4689547949
  H         4.2177544634        6.1913213581        0.9855261027
  H         4.3600381421        7.0789342975        2.2764893575
  C         5.2598049095        8.0908875189        0.6894748495
  C        12.5355304138       -0.3037329330       -2.7705663439
  S         6.0026974262        6.2857799005       21.0878386145
  C         6.3563906581        9.3119707025       21.1024796624
  H        17.8462109433        4.2452231652        7.3145410862
  H        17.9402358922        4.3474978384        5.6119222907
  C        18.6773872011        6.1676388489        6.7004254026
  H         5.5221074085        7.9211114724       -0.3510279005
  H         6.2310169043        8.5011544273        1.0729643616
  C         4.2068714199        9.1732345965        0.7674043928
  H        12.3108140892       -1.3298929109       -2.6233856317
  C        13.1377115416        0.1676947232       -3.9401114445
  H         5.7278289688        8.7627149243       21.8621664763
  H         5.8975781974       10.3235915205       21.1053642208
  C         7.8475626544        9.3537799107       21.5816664772
  H        18.4778520749        6.7794970993        7.5767990108
  H        18.5269063380        6.9391541887        5.9380549490
  C        20.1710173472        5.7904506188        6.6608534036
  H         4.4787663528        9.9817693988        0.1852609446
  H         3.2738502533        8.8154345544        0.3110251194
  C         3.9552110805        9.6367453876        2.2543504399
  S        13.8363309608        1.6888804922       -4.2885584913
  C        13.2118433964       -0.8379698236       -5.0331374970
  H         8.2306142000       10.1968539462       22.1970773955
  H         8.4805631610        9.3850394809       20.7011347793
  H         7.9832584487        8.5046534552       22.1475831325
  H        20.8365029330        6.5701784855        6.9150556263
  H        20.1752147931        5.0220833859        7.3255159843
  H        20.3815371098        5.3943929599        5.6441690312
  H         4.8029150666        9.4690486257        2.9747454909
  H         3.9362833162       10.6746689263        2.2054061730
  H         3.1373048003        9.2129762956        2.7781162529
  C        14.1167408232        1.0164163560       -5.9153134468
  N        13.8415278911       -0.2727447659       -6.0496416242
  O        12.7025506888       -1.9656356892       -4.9353623069
  S        14.8761620807        2.0069157321       -7.1575471583
  C        14.0948388155       -0.9689898069       -7.2963900949
  H        14.4646251067       -2.0035880369       -7.1818909165
  H        14.8640663929       -0.5196178117       -7.9153104371
  C        12.7531962678       -0.9649151063       -8.1644979834
  H        12.8378036846       -1.3952630356       -9.1491140936
  H        12.2564908383       -0.0135302292       -8.1143647467
  H        12.0004704104       -1.5320158752       -7.6599369139
