352
 i =    23500, time =    11750.000, E =        95.5288049026
  H        10.4653520834        4.5021153855       31.3192527685
  C        10.8428387644        5.3481487024       31.8550389977
  H         9.9938901807        5.8570515312       32.1263771911
  C        11.3379205923        6.3243493917       30.8019418787
  C        11.7485850812        5.1918127834       32.9686932295
  C        11.7214649437        5.6988845766       29.4891115344
  H        10.5722248891        7.0471898584       30.7600099046
  H        12.1875825313        6.9453502031       31.2282053142
  H        11.2246549346        4.5497435792       33.5386703416
  H        12.7152420844        4.7956638752       32.7159660883
  H        11.8670945691        6.0856366824       33.5507264715
  C        10.5439274318        5.4541537002       28.6598734043
  H        12.1720700734        4.6960166826       29.6974532380
  H        12.4441356342        6.3874369558       28.9321858918
  C        10.9157054639        5.3846894582       27.1951244779
  H        10.0632471510        4.4959648609       28.8775909637
  H         9.8573095352        6.3842491772       28.7849764782
  C         9.8825433616        4.6992495837       26.2885027031
  H        11.7623752718        4.7818912494       27.1588774610
  H        11.1007799037        6.4430369714       27.0026198320
  C         8.6868051593        5.6120443207       25.9366135323
  H        10.3833023863        4.3112687170       25.3872066579
  H         9.4847201124        3.8684208173       26.8549717265
  C         7.4795769343        4.9369470062       25.3140046261
  H         8.2857831418        6.0971506059       26.8531496189
  H         9.0824799614        6.3845633237       25.2262319202
  C         7.0691238009        3.5709965260       25.9406297136
  C         7.9409102793        4.2034285827       24.0484175995
  C         6.3025232607        5.9080872490       25.0140973674
  C         7.2024820172        2.5026006050       25.1194379478
  C         6.5074940229        3.2618293929       27.2018116836
  C         7.7853943687        2.8514770565       23.9431283840
  C         8.3571999632        4.8695112838       22.9116022204
  H         6.5184537871        6.6861957613       24.2960990101
  H         5.9160777990        6.4800315052       25.8753196344
  C         5.1306182692        5.1411354758       24.3485256679
  S         6.6525081003        1.0256493238       25.8337966354
  C         6.2456060111        1.8917941650       27.3182871702
  H         6.3047631410        4.1603134728       27.9260014474
  C         8.1667764614        2.2465951748       22.7482189428
  H         8.2953358529        5.9459468727       22.8776412321
  C         8.7739941591        4.2387427817       21.7775871695
  H         5.5430901413        4.7773901708       23.4241989326
  H         4.8364319715        4.2500653383       24.8827244060
  C         3.8082934707        5.8984159542       24.0009470451
  C         5.7183631940        1.2659586311       28.6022084109
  C         8.7429549075        2.9032370532       21.6332402388
  H         7.9238872129        1.1743588546       22.6782477661
  C         9.1370177876        4.6721840612       20.5225537242
  H         3.0605789095        5.3364734222       23.5525749193
  H         4.0303156784        6.7273855689       23.3308734511
  C         3.1882451988        6.4005847441       25.3629773564
  C         5.7862490125       -0.1273490960       28.8461979398
  C         5.4971660295        2.1672190841       29.7166521062
  C         9.1441637951        2.2711004276       20.3906204994
  C         9.3164144795        3.6190209751       19.6715460275
  S         9.3364312623        6.2438997588       19.8799890838
  H         2.3873802669        7.0776223187       24.9949257871
  H         3.7588368682        7.1581784295       25.8692788258
  C         2.5073751476        5.3248552066       26.1776629050
  N         6.1568839465       -1.1217690883       27.9562898221
  C         5.6659377310       -0.6373773243       30.1399441199
  C         5.3304590810        1.6647859614       30.9686648229
  H         5.3714615595        3.2401724209       29.6333188535
  C         7.9678703232        1.3733051995       19.8401017060
  C        10.4429981473        1.5178470740       20.5614065472
  C         9.6966805981        4.1127822622       18.4023214175
  C         9.8043883439        5.4251414174       18.4173174616
  H         1.7258351095        4.8823557679       25.5980222014
  H         3.2362788602        4.5771442672       26.4601693354
  C         1.8677767599        5.8181187211       27.4506736062
  S         6.2738977276       -2.5575419358       28.7564298847
  N         5.8120276697       -2.0517949884       30.2299092805
  C         5.4285253896        0.2285733053       31.2270154237
  H         5.0073676535        2.3218019978       31.7290053503
  H         7.7989740805        0.4919881153       20.4499769813
  H         8.2443169174        0.9200544784       18.8884529215
  C         6.7379423748        2.1257473791       19.3485075140
  H        10.7040901936        1.2457424657       19.5421475978
  H        10.4150520883        0.6455536649       21.2335354777
  C        11.5639723265        2.4273585998       21.2265698527
  H         9.8139049818        3.4641418901       17.5523882754
  C        10.0378613407        6.2355672475       17.1175602192
  H         1.1661110069        6.5189086140       27.0024259443
  H         2.6742814361        6.3162207491       28.0224219646
  C         1.1850334373        4.7782289900       28.3005767587
  C         5.1372176980       -0.4585240396       32.4748955922
  H         7.0031925245        2.9456071862       18.7157967212
  H         6.2714626619        2.5633712090       20.2591557348
  C         5.6462806896        1.2990695250       18.6159947396
  H        11.2347142118        2.9514928602       22.1145162219
  H        11.7150708058        3.2647794437       20.4793293493
  C        12.8317339399        1.6021208088       21.5624333918
  C        10.1221569547        7.6413867898       17.0291733251
  C        10.1533113620        5.5654718694       15.8028784356
  H         0.4715665607        4.1976631460       27.7444386906
  H         1.8297024967        3.9379472408       28.4375061684
  C         0.7482556622        5.2647464337       29.6668061644
  H         5.7085244403       -1.3559106058       32.5106937821
  C         4.7456898190       -0.0677473850       33.7262774028
  H         4.9150082203        0.7356180530       19.2126255046
  H         6.0023238351        0.5977467496       17.8456167587
  C         4.7905777531        2.3426421099       17.9431112530
  H        12.5447824831        0.8195258481       22.2761827315
  H        13.1539321078        1.0953208788       20.6709350484
  C        14.1304785688        2.3218757226       22.0443553077
  N         9.8841066907        8.4896897095       18.1310452432
  C        10.3697991258        8.3054744431       15.8446774181
  C        10.3963418071        6.1805002963       14.6156846781
  H         9.8461554998        4.5585107662       15.8076997555
  H         0.0448461368        6.0588679434       29.6181174379
  H         0.3186488461        4.4697335816       30.2270394338
  H         1.4802319070        5.6402151920       30.3003536013
  S         4.3944968096        1.5467431281       34.1726719446
  C         4.7798510924       -1.0352698668       34.8767726033
  H         4.8664675542        3.2685223305       18.5503638798
  H         5.1576291761        2.5083850911       16.8699286812
  C         3.2982569021        2.0239148349       17.9020659154
  H        13.7932713334        3.2321233950       22.4819612648
  H        14.6466864700        2.6833004943       21.1928663925
  C        15.1609464238        1.4448617557       22.8019197101
  S         9.9624744873       10.0316317205       17.6072340682
  N        10.1797815567        9.6841876497       15.9541577450
  C        10.6313730490        7.6255227775       14.6179521303
  H        10.4639827076        5.5540439113       13.7957215420
  C         4.2071593230        0.9458498213       35.8157643878
  N         4.2400576294       -0.4213227999       35.9412521136
  O         4.9489464165       -2.2806679545       34.7009966727
  H         2.8352350389        2.8986400109       17.4766934999
  H         2.8343043743        2.0206885413       18.9001098441
  C         2.8796454021        0.8098616383       17.2104922293
  H        14.6266768313        0.8010548210       23.4678065933
  H        15.5869213188        0.6935065347       22.1934078225
  C        16.2242114644        2.4840298747       23.3253427094
  C        11.0342241187        8.3647425471       13.5026078695
  S         3.8947997327        1.9042008042       37.2208448133
  C         4.1612877584       -1.0747039571       37.2062102623
  H         2.1432018691        0.9796060023       16.4819343059
  H         3.7708212408        0.3567214856       16.7020688072
  C         2.4651228193       -0.2846850939       18.1066323201
  H        16.0699487700        2.7804399776       24.3641339864
  H        16.2761571446        3.4405933736       22.7083967487
  C        17.6277845857        1.8646184269       23.2931264297
  H        10.9381456878        9.4402051977       13.6078219724
  C        11.5254389124        8.0173228072       12.2707561306
  H         3.5840510863       -0.6059796500       37.9430488864
  H         3.6125758592       -2.0213029424       37.2106932804
  C         5.5138724024       -1.3069928581       37.8241806065
  H         1.5945788246        0.0652541927       18.5698823417
  H         3.2135101925       -0.5760202200       18.8755298465
  C         2.0899523208       -1.5782602440       17.3587334740
  H        18.4254120329        2.4604427649       23.7830203870
  H        17.5408008383        0.8701565225       23.7848865994
  C        18.0267837660        1.6902946102       21.8407766956
  S        12.0567756780        6.4489653476       11.8543007879
  C        11.5274746589        9.0887610319       11.2325370457
  H         5.4492826433       -1.7913788906       38.8064345343
  H         6.0246943320       -2.0101307845       37.1718141472
  H         6.1145032905       -0.3964056572       37.8811691014
  H         1.5474701644       -2.3322687014       18.0026246608
  H         3.0357090909       -1.9109564899       16.9313942748
  H         1.4033521469       -1.4187834574       16.4788647308
  H        19.0805591980        1.6570571724       21.7014776163
  H        17.7747401825        2.5379145464       21.2378433574
  H        17.5699612981        0.8166605093       21.3229455197
  C        12.2894241668        7.1801298635       10.2265293440
  N        12.1550357313        8.5412903225       10.1606672443
  O        11.2522258465       10.2564372298       11.4510658096
  S        13.1010561690        6.3875623213        8.8601575070
  C        12.3765941057        9.4340649058        9.0578601783
  H        12.5863950272       10.4141808548        9.4114715217
  H        13.2925831453        9.0810123299        8.6254786950
  C        11.2222361104        9.4591676454        8.0717489000
  H        11.1483820716        8.4030254240        7.7050782157
  H        10.3398367765        9.6947671502        8.6445444978
  H        11.3093011019       10.0517457314        7.1475409176
  H         4.3322816966        1.1506892080       12.2153743338
  C         3.9436816783        2.1814278434       12.3048876787
  H         4.7356583090        2.8832321392       12.2929007002
  C         3.0297681160        2.4595807135       11.1368118594
  C         3.2936906878        2.3349731406       13.7082166483
  C         3.9037426113        2.6889864094        9.8594298151
  H         2.3757322195        3.3425261251       11.2183491947
  H         2.3453079604        1.5797934562       11.1205384064
  H         2.6282318934        1.4714671964       13.9293688258
  H         2.5721615331        3.1269141182       13.8738813924
  H         4.1452653241        2.2923619555       14.3817420130
  C         4.8251575316        1.4797246882        9.4421964911
  H         3.1847934286        2.8457414346        9.0194930917
  H         4.4895757097        3.6237373553        9.8887089263
  C         5.5791430217        1.9373462176        8.1441143838
  H         4.2549312560        0.5691909601        9.3286709388
  H         5.5546337427        1.3365019818       10.2447983764
  C         6.8074273017        2.8096506312        8.3549757158
  H         4.8040862658        2.5191063692        7.5892025965
  H         5.6275083877        1.0146694504        7.5269754563
  C         8.0226253698        1.9710218982        8.9635953278
  H         6.9781949753        3.2875236251        7.4302724600
  H         6.5241209777        3.6128297771        9.0638557172
  C         9.2844423291        2.8076749714        9.1710481287
  H         8.3937471490        1.1707995877        8.3095913011
  H         7.8209166598        1.5729486496        9.9667996150
  C         8.8719270143        4.1750105027        9.7459593151
  C         9.6962377326        3.4680849080        7.9459950186
  C        10.3495417088        2.0761408637        9.9880837350
  C         9.0287766031        5.2632552076        8.9138174723
  C         8.3226126754        4.5488692465       10.9874872411
  C         9.6265930076        4.8030472034        7.7493386015
  C        10.1833048695        2.8205804732        6.8163386396
  H        10.0120537222        1.6530552326       10.9003847657
  H        10.6607276030        1.1866232838        9.3700112411
  C        11.5839553191        2.9106718071       10.2676011366
  S         8.6040072481        6.7649830695        9.6042560188
  C         8.1373826270        5.9230329514       11.0548204563
  H         8.2465022754        3.8204723447       11.7507968210
  C        10.0637390056        5.3781222742        6.5977676601
  H        10.1156588399        1.7735802931        6.7635931334
  C        10.5918083632        3.3888494174        5.6403422995
  H        11.2878690772        3.8376869555       10.7328276462
  H        12.0552088155        3.3360638959        9.3841878562
  C        12.6675284144        2.1560038058       11.0893361693
  C         7.5850123617        6.6372114609       12.2590551419
  C        10.6242890230        4.6972779149        5.4765443330
  H         9.9437433145        6.4598788283        6.3778944118
  C        10.9573154750        2.9086576970        4.3679379262
  H        13.6534247568        2.5417722122       10.8965628323
  H        12.6029866252        1.1194228953       10.8075237237
  C        12.3274612216        2.1272564914       12.6544405059
  C         7.7620058557        7.9875486286       12.6471061602
  C         7.1476942695        5.7420445986       13.3965098711
  C        11.0734045150        5.3039614507        4.1894200464
  C        11.2663711775        3.9388881063        3.5125165448
  S        11.1153518906        1.3205658214        3.7516016639
  H        12.0571497152        3.0973176051       12.9979391883
  H        11.5475973534        1.4281855231       12.7194924091
  C        13.4951112045        1.5563115541       13.5707859532
  N         8.4026662797        8.9870065853       11.8474648394
  C         7.4041160754        8.4370427161       13.9160353387
  C         6.8036336745        6.2099283480       14.6647520517
  H         7.0088222903        4.7438404722       13.1021676145
  C        12.3899321009        6.2147345639        4.2556656282
  C        10.0573301404        6.0257937612        3.4150763633
  C        11.6019721821        3.4040265719        2.2749538167
  C        11.5926746338        2.0636444156        2.2722397576
  H        14.3254472088        2.2499514891       13.4258463169
  H        13.8337054767        0.5408493655       13.2752459044
  C        13.0724652125        1.4814809396       15.0018363873
  S         8.1228241686       10.4469362793       12.6042412320
  N         7.5681018458        9.8139778067       14.0072386846
  C         7.0113002634        7.6252581594       15.0238243973
  H         6.3673118261        5.5476323361       15.3828656864
  H        12.1578919606        6.9238852397        5.0944414241
  H        12.6153704113        6.6814358400        3.2846172799
  C        13.6572977615        5.4983040926        4.8094852805
  H         9.8415939900        7.0194948068        3.8233886907
  H        10.4014423570        6.3499907057        2.4348156732
  C         8.7557154669        5.1759551044        3.1876910132
  H        11.7984454587        4.0638065330        1.4355655247
  C        11.8833181969        1.2628424089        1.0291284519
  H        12.0219715535        1.1242253045       15.0171803489
  H        13.7189223981        0.7920952451       15.5509314126
  C        13.1983786038        2.8370617147       15.6853940589
  C         6.7340091862        8.2483533496       16.2288678473
  H        13.3154878640        4.8915310072        5.6837885092
  H        14.0511856548        4.8864915841        4.0465750167
  C        14.7755071576        6.5474099351        5.1544303229
  H         8.3359353161        4.9632276764        4.1099503857
  H         8.9474210731        4.2189513826        2.6879791623
  C         7.6198064342        5.9099078516        2.4492379993
  C        11.8406097175       -0.1241110816        0.8588645796
  C        12.2207494198        1.9890724320       -0.1950217029
  H        12.6111180838        3.5640311044       15.0828654077
  H        14.2760411543        3.0703492552       15.5214853781
  C        12.8777376555        2.6955133604       17.1964074508
  H         6.5910426654        9.3213750469       16.1949205597
  C         6.5848419619        7.6384247744       17.4433455135
  H        14.5138396004        7.0178061570        6.0493679113
  H        14.9111089021        7.2198521273        4.2529120252
  C        16.0506053990        5.8062082090        5.4563505317
  H         7.3849571469        6.7566552829        3.0773466042
  H         7.8125374889        6.3133425565        1.4237736064
  C         6.3639133791        5.0359397217        2.3941665844
  N        11.5950176099       -1.0409664783        1.9185830313
  C        12.2482548867       -0.8334114623       -0.2497120958
  C        12.3466162090        1.3503571702       -1.4465345527
  H        12.1429583331        3.0449908215       -0.2181403443
  H        11.8376675645        2.3728015456       17.2605406221
  H        12.8660316150        3.6434324732       17.6161065450
  H        13.5296600121        2.0410106116       17.7336634850
  S         6.4937965011        5.9574571146       17.8592228653
  C         6.3897207219        8.6060959678       18.5799351536
  H        15.8591024346        4.8043576432        5.2070833743
  H        16.8325575046        5.9686702190        4.7563220690
  C        16.7044263236        5.9997183759        6.8064346616
  H         6.0301553756        4.7722921532        3.4021702948
  H         6.6586124160        4.1245810373        1.8831639290
  C         5.1863385822        5.7798880738        1.6703368313
  S        11.7528344747       -2.6059040985        1.3808342637
  N        12.2567166743       -2.1955436775       -0.1188323695
  C        12.4371447149       -0.1148011156       -1.4981200708
  H        12.5390447175        1.9577002624       -2.2921012488
  C         6.0901679639        6.5432813992       19.4527488208
  N         6.0361081889        7.8740260425       19.6676726123
  O         6.4722258884        9.8162932257       18.4745666496
  H        16.9149747872        7.0582671790        6.9379327440
  H        16.0345996938        5.7492011002        7.6001244819
  C        17.8823248097        5.0765163842        7.1267246701
  H         5.5462134415        6.3676035499        0.8062135762
  H         4.5156737119        5.0121879240        1.2416835343
  C         4.5550871722        6.6973575000        2.6377417229
  C        12.6822918918       -0.8231504819       -2.7076598197
  S         5.5240799321        5.5029097383       20.7251795499
  C         5.8180630682        8.5111682915       20.9655665160
  H        17.8265882975        4.8909115727        8.1770736379
  H        17.8168941211        4.1570702680        6.5665956456
  C        19.1536920165        5.7514092005        6.9339390118
  H         5.1727565466        6.8290105162        3.5433465752
  H         3.5604616226        6.3627236751        2.8963014870
  C         4.2904245533        8.0411479401        2.0600162155
  H        12.4181670607       -1.8582276188       -2.6632901847
  C        13.2934324942       -0.3833290601       -3.8875994735
  H         5.1245658198        8.0686040046       21.5769623221
  H         5.4288269361        9.4922134333       20.8913113740
  C         7.1601806910        8.6243093629       21.7707293119
  H        19.9245339061        5.2654103911        7.4828675916
  H        19.1430705114        6.7737874995        7.3314977944
  C        19.6655250295        5.6712917152        5.4043471142
  H         5.1224390396        8.3955124305        1.5106846966
  H         3.3861159553        7.9762469499        1.4270682856
  C         3.8909135349        9.0595378744        3.1024507971
  S        13.8793407741        1.2261323175       -4.3296475957
  C        13.3972625458       -1.3796581543       -4.9930612528
  H         7.9738474125        9.1175963792       21.1892217540
  H         7.4016043455        7.6484768033       22.2552933507
  H         6.8960431672        9.2810038725       22.5540600049
  H        20.7405746786        5.9117303095        5.3261630416
  H        19.4258162723        4.6844486890        5.0045956156
  H        19.0490024566        6.3222073927        4.6941156774
  H         3.0007247973        9.4409298195        2.5733782502
  H         3.6315770335        8.6006875192        4.1015569791
  H         4.5802790140        9.8583644256        3.1441131784
  C        14.2302436942        0.5036062590       -5.8963530250
  N        13.9301569942       -0.7695553940       -6.0869147906
  O        13.1505944724       -2.5642053153       -4.8557383905
  S        14.7664661864        1.3673243535       -7.3246701857
  C        13.9784104195       -1.4096838265       -7.3775088744
  H        14.1777394507       -2.4892940693       -7.0905418041
  H        14.7442393493       -1.1028812378       -8.0361136192
  C        12.6413340211       -1.2646254511       -8.1094430551
  H        12.5850681937       -0.2315786558       -8.5255627890
  H        11.7115605859       -1.3640101407       -7.4876495937
  H        12.5549702123       -1.8457771935       -8.9975432779
