352
 i =    12400, time =     6200.000, E =       126.9958935749
  H        10.5167406386        4.5694147076       32.8867599503
  C        10.3127664338        5.6424326673       32.8352268331
  H         9.6629661922        5.9765729288       33.6816685126
  C         9.6072584567        5.8773952397       31.5140639119
  C        11.5401043692        6.4466161844       33.0406489563
  C        10.5946854830        5.8915447390       30.3125215499
  H         8.7200607500        5.3094670253       31.4257137886
  H         9.3161069113        6.9285430257       31.7038198917
  H        11.6984831407        6.7360086120       34.0655245047
  H        12.3577449697        5.7592936122       32.7669324451
  H        11.4362806686        7.3004330129       32.4158537649
  C         9.9098238060        5.3569095753       29.0554448909
  H        11.4615959261        5.3684749341       30.7247162710
  H        11.0243788040        6.9031582403       30.0951055226
  C        10.4854497277        5.7710616498       27.7291720307
  H        10.2124206125        4.3317002641       29.1307837624
  H         8.8784465078        5.4932905394       29.0979376099
  C         9.8041484424        5.1339375593       26.5660655306
  H        11.5159208441        5.4299218434       27.8334632041
  H        10.5372435920        6.8368563709       27.6759176402
  C         8.5790895733        6.0373661308       26.2026999410
  H        10.4681803518        4.9192431880       25.7229969716
  H         9.4766104409        4.1510664495       26.8561485152
  C         7.4184138637        5.1806982798       25.5710146725
  H         8.2834269475        6.5944270536       27.0798985269
  H         8.7812653841        6.7932662714       25.5485206960
  C         6.9961917409        3.8641039629       26.2306800622
  C         7.8342760912        4.5203751679       24.3309301697
  C         6.1814618895        6.0241150749       25.2370684510
  C         7.0888585391        2.8045807872       25.3918097267
  C         6.5778483446        3.4728036752       27.5537030938
  C         7.6210218537        3.1405270940       24.1824041601
  C         8.2465394511        5.1643168691       23.1896075975
  H         6.5461120887        6.7706107152       24.5228873173
  H         5.9561439226        6.6330641209       26.1279116066
  C         4.9657042607        5.2234831152       24.7408966161
  S         6.6309177369        1.3058095309       26.1354568886
  C         6.1455371272        2.1794044543       27.5807390357
  H         6.4887474638        4.1243483615       28.4355468378
  C         7.9846187827        2.4882268944       23.0178477079
  H         8.2345979224        6.2327727580       23.1319874996
  C         8.5725021348        4.4974727406       22.0413961480
  H         5.2878942047        4.8593205026       23.7431085370
  H         4.7713729674        4.4254775467       25.3374531339
  C         3.6407456654        6.0191365889       24.6393336608
  C         5.6627431010        1.5352855261       28.8137343143
  C         8.5169912218        3.1334201442       21.9038494875
  H         7.9378882524        1.3893698003       22.8746072892
  C         8.9720968891        4.8780508438       20.7748246624
  H         3.0009443855        5.3038362457       23.9987063822
  H         3.8173122534        6.8148077661       23.9609057704
  C         2.9774186888        6.5164111050       25.9582832831
  C         5.6295612948        0.1132218555       29.0723656879
  C         5.2804894510        2.3616330625       29.9927593426
  C         8.9322661740        2.4017905898       20.6818290737
  C         9.1407335027        3.7432035444       19.9209822287
  S         9.1596360402        6.4251721538       20.0274780780
  H         2.1791787784        7.0334201672       25.4212519224
  H         3.7349139662        7.1840467412       26.5256948311
  C         2.5316998159        5.5205605292       26.9534397752
  N         5.8010311339       -0.8214235225       28.0762245659
  C         5.3796160397       -0.5029176918       30.2246771954
  C         5.1366139642        1.7420128168       31.2308314779
  H         5.2404558067        3.4401490093       29.8762831098
  C         7.7530270848        1.5353243888       19.9544718719
  C        10.2221084907        1.6685724904       20.9846600159
  C         9.4470047723        4.2532917559       18.6343766892
  C         9.5553062956        5.6050754056       18.5300200435
  H         2.6112307070        4.4836061357       26.6066542099
  H         3.3427643891        5.4912886600       27.7309444159
  C         1.1535092523        5.8041980997       27.5433525481
  S         5.7357507640       -2.3705462379       28.6499392266
  N         5.6015556926       -1.9310892239       30.2012664970
  C         5.1871452230        0.2349442318       31.4256226309
  H         4.9092408782        2.4287000309       32.0842969139
  H         7.4167784440        0.8100489485       20.7594592734
  H         8.1282357840        0.9597490511       19.1083519334
  C         6.5778889491        2.3642264147       19.4390560575
  H        10.4628396895        1.2051307419       20.0105547435
  H        10.0622781604        0.7238472672       21.5639959153
  C        11.3664177876        2.6116056766       21.3732141321
  H         9.6117068707        3.5304301493       17.8330711519
  C         9.8408793997        6.4241992134       17.3077443939
  H         0.2965476321        5.4789000087       26.8531155788
  H         1.1005471186        6.8462434263       27.8086656475
  C         0.8464123157        4.9428818610       28.8036005973
  C         4.9581309516       -0.4924435544       32.6027988823
  H         6.9388139640        3.0872365438       18.6663574085
  H         6.2040228315        2.7512213471       20.3387651106
  C         5.4529053414        1.4109194532       18.9001014848
  H        11.0535866576        3.1972201604       22.2277868822
  H        11.5732086073        3.2727424321       20.5669600311
  C        12.6160921039        1.7926343547       21.6689696184
  C         9.7849624857        7.7883940315       17.1254442958
  C        10.2784370598        5.6722225330       16.0600476465
  H        -0.2027934980        4.6189204685       29.0111554959
  H         1.4116946512        4.0186628656       28.6401218021
  C         1.4062959168        5.6240713278       30.0694420728
  H         5.3436893626       -1.4813054697       32.6063996660
  C         4.5391874554       -0.0596380732       33.8520366653
  H         5.1120094067        0.7415289232       19.6584450658
  H         5.9142351341        0.8012821514       18.1099353430
  C         4.2362857176        2.1453137655       18.3883951591
  H        12.4846938681        1.3806017914       22.6437735478
  H        12.6619512021        0.9310121095       20.9689393359
  C        13.8323287912        2.6880837957       21.4792320073
  N         9.1376863618        8.6324376662       18.0484769613
  C        10.1127104098        8.4763575454       15.9882790854
  C        10.4179756648        6.3396005642       14.8224097984
  H        10.3884031451        4.5710630082       16.0530589885
  H         1.2650437260        4.9344513907       30.9752522084
  H         2.4457958732        5.9694717228       30.0617272259
  H         0.8692722896        6.4624834565       30.3159954864
  S         4.0855918330        1.5329866187       34.3684777292
  C         4.5085793011       -1.0943065265       34.9251540377
  H         4.1642666310        3.1354378497       18.8100457221
  H         4.4565599715        2.2768564270       17.3130285032
  C         2.9081957506        1.2692609408       18.4299144322
  H        13.6919207826        3.4000684840       20.6512497966
  H        14.6949420317        2.0091867127       21.2079608330
  C        14.2177472608        3.1153939801       22.9115170948
  S         9.2421863082       10.1787576735       17.5619934296
  N        10.0613648196        9.8515002899       16.1486579839
  C        10.4208881967        7.8563077999       14.7534442844
  H        10.6033433678        5.6796560548       13.9037958070
  C         3.7465341139        0.7425087733       35.9804450158
  N         4.0364919310       -0.5709736643       36.0730968264
  O         4.8038402138       -2.2623777515       34.7135858888
  H         2.0336461763        1.8990663000       18.1442336316
  H         2.8056749138        0.9187969616       19.4325885901
  C         2.9680449596        0.0254039476       17.4777591397
  H        13.6686071732        3.9931109114       22.9776803954
  H        13.7952332507        2.4212683445       23.7071482584
  C        15.7207046926        3.3303590903       23.2732986636
  C        10.6684100643        8.6186152467       13.6124889326
  S         3.4949800336        1.5682795389       37.4969181444
  C         4.1382787185       -1.4132409937       37.2438981328
  H         2.3801925149        0.1605901968       16.4778167948
  H         4.0857436793       -0.2979043874       17.2299552947
  C         2.2779823130       -1.1614561370       18.1672104450
  H        15.6727024849        3.8659078040       24.1729777739
  H        16.2914696377        3.8124342748       22.5060455114
  C        16.4352148171        2.0290877352       23.4778625717
  H        10.1029880263        9.5354433734       13.4069677490
  C        11.3454546098        8.4287807120       12.4340207933
  H         3.3513251567       -1.0645102197       37.9272939652
  H         3.9080503863       -2.3772863778       36.9895349331
  C         5.5377515527       -1.4203087405       37.8605058339
  H         1.3293143188       -0.9145821564       18.5556643773
  H         2.9119834685       -1.5562420266       18.9704539626
  C         2.2928915443       -2.3793743838       17.2461437069
  H        16.2242960360        1.7259212767       24.4713803284
  H        15.9544566718        1.3040385788       22.8354375468
  C        17.9562227124        2.0851027791       23.2644601168
  S        11.9450332002        6.8980688102       11.9726218217
  C        11.3946385837        9.5572715575       11.4945716291
  H         5.7352272625       -2.4978266302       38.1846946057
  H         6.2895682037       -0.9723658653       37.2684703706
  H         5.3771149287       -0.8626315196       38.7625386166
  H         1.4849760378       -3.0972771837       17.3887630018
  H         3.1415584554       -3.0913401308       17.3797696063
  H         2.4574780638       -2.1396776434       16.2013358744
  H        18.5200890313        1.1046566605       23.2912661522
  H        18.4900523218        2.5581627710       24.0890989835
  H        18.3085036500        2.7355250373       22.3650952100
  C        12.2474751139        7.7070255147       10.4407541305
  N        12.0379856006        9.0468729452       10.4039406818
  O        10.9673706188       10.7389358362       11.6079475112
  S        12.6771418708        6.8951564141        8.9113015887
  C        12.2178451963        9.8771173523        9.2718644313
  H        12.3085066994       10.8796112280        9.7923209679
  H        13.1169041477        9.6409592693        8.6971755621
  C        10.9633031665       10.0244581606        8.3615712443
  H        11.1396662056       10.8669072653        7.6836692063
  H        10.8073883102        9.1825099091        7.6689114780
  H        10.0141704722       10.3913356792        8.7689414427
  H         4.3238168717        1.4011689293       12.8698722685
  C         3.6747561557        2.2369987161       13.0437474267
  H         4.2936535363        3.0426829975       13.2783459403
  C         2.8469418488        2.4950759352       11.8276568020
  C         2.9320516063        1.9762865868       14.3400344041
  C         3.8047595064        2.8887818575       10.7106524598
  H         2.2119991098        3.3893417023       11.8060979132
  H         2.2706187740        1.5894275329       11.6341929867
  H         2.3287908550        1.0658304059       14.4548925388
  H         2.2892739024        2.8359812840       14.6065630780
  H         3.6451219116        1.8228894028       15.0568183775
  C         4.6256396828        1.7842100670       10.0810478478
  H         3.3280832305        3.4056207099        9.9315547681
  H         4.4768071930        3.6410483127       11.1070846016
  C         5.1560248398        2.1121532057        8.7623484102
  H         4.0314220040        0.8587672461       10.0468139464
  H         5.3485042951        1.5074863357       10.8121954598
  C         6.3185912169        2.9925621492        8.6661554968
  H         4.3354411690        2.6831236977        8.2154044624
  H         5.2040805659        1.2416898642        8.0831625153
  C         7.6268908382        2.2833187146        9.0647738482
  H         6.3808971944        3.4469869359        7.6831851044
  H         6.0935414956        3.8700451024        9.2577375836
  C         8.8732292892        3.1840927644        9.1554888193
  H         7.8008848739        1.5174317562        8.2980877219
  H         7.3954298397        1.6205884289        9.9149869759
  C         8.5947948993        4.4398120120        9.8933854439
  C         9.3115128742        3.9147732885        7.9135832595
  C         9.9414452664        2.3929916983        9.8660725594
  C         8.7713353405        5.5996984398        9.1818506772
  C         8.3032375160        4.7200650958       11.2384039709
  C         9.2241167246        5.2856990248        7.8952641123
  C         9.7737019333        3.3061413083        6.7666499311
  H         9.5902807004        1.8826123286       10.7078663047
  H        10.3311678825        1.6289651531        9.2151169891
  C        11.1112429465        3.2600874822       10.3086513873
  S         8.2269350992        7.0476864557       10.0462610583
  C         8.0588205179        6.0880798459       11.4734994339
  H         8.2838641348        4.0080157790       11.9602767549
  C         9.5696006531        5.9483300553        6.7791438427
  H         9.7848999572        2.2455772282        6.8815940482
  C         9.9326916583        3.9432695277        5.5957239097
  H        10.8491505350        4.1693421254       10.8459830877
  H        11.6036372136        3.6926475796        9.4071884325
  C        12.1268585101        2.6623432587       11.2995268073
  C         7.4306710217        6.7052791846       12.7362438362
  C         9.9989365037        5.2993520555        5.5665537266
  H         9.6230006049        6.9929444588        6.7621763136
  C        10.4489672976        3.5526107244        4.4003870983
  H        12.8001560581        3.5455072066       11.5141545165
  H        12.7282463377        1.8830455461       10.8486320333
  C        11.6054869346        2.2492043246       12.6903358028
  C         7.3431516640        8.0990868582       12.9533365864
  C         6.9270583393        5.8203887621       13.7992290840
  C        10.5757295362        6.0312624765        4.3972465576
  C        10.7475640386        4.6312832043        3.6289450662
  S        10.6425546411        2.0454575362        3.7502978539
  H        10.8084681249        2.9125181069       13.0205567817
  H        11.1724144173        1.2854568551       12.6462153480
  C        12.7216123345        2.4059621136       13.7107956445
  N         7.8197338010        9.0493676779       12.0614241156
  C         7.0909079954        8.6295190942       14.2210805018
  C         6.5303124022        6.3945285313       15.0111497903
  H         6.6908662769        4.8396369067       13.5006026371
  C        11.8968191630        6.8218308653        4.6061268263
  C         9.4108917419        6.8000903096        3.5904176512
  C        11.2801693232        4.2156353889        2.3982386818
  C        11.3202164393        2.8197158579        2.3068850792
  H        13.0790991046        3.3931780430       13.9154321478
  H        13.6648317287        1.8326050548       13.4670559110
  C        12.3075005418        1.6170612741       14.9603026660
  S         7.7403040209       10.4970642908       12.8237618042
  N         7.2908843430       10.0501628649       14.2991901478
  C         6.6566204958        7.8709701273       15.2870371330
  H         6.1002111865        5.7628541495       15.7160562103
  H        11.6816480959        7.4541760193        5.4728481598
  H        12.0257244825        7.5484560126        3.7411814195
  C        13.1812374877        6.0826345908        4.8124364123
  H         9.1124134959        7.5773816743        4.3309053111
  H         9.8695939273        7.2879637559        2.7093108190
  C         8.1984939593        6.0283199166        3.0199898008
  H        11.6208989134        4.8591175219        1.6738990511
  C        11.6726707967        2.0367540975        1.0827160411
  H        11.3262077595        1.9764926268       15.4053185453
  H        11.9225216805        0.6632171100       14.6082639540
  C        13.3647876014        1.6850949968       16.1682119060
  C         6.2791134600        8.5577832116       16.4538595441
  H        12.9629703696        5.3510699208        5.5671734257
  H        13.2292098683        5.4946290268        3.9687622277
  C        14.3817493593        7.0389029196        4.9161616282
  H         7.7445291537        5.3965212218        3.7119861199
  H         8.4032590794        5.3599953062        2.2890797299
  C         7.1622432601        7.0497355168        2.5671066698
  C        11.7297444697        0.6588493904        0.9555298197
  C        11.9767033122        2.7489840076       -0.1359874958
  H        14.3190874269        2.0581816248       15.7853919296
  H        13.4668149542        0.6263018851       16.4342687210
  C        12.9865725199        2.6295475595       17.3615568628
  H         6.3679676816        9.6081521828       16.4357626530
  C         6.0571393759        8.1103417092       17.7475981332
  H        14.1406885538        7.6356903981        5.7187857816
  H        14.4784102046        7.6141132620        4.0044109678
  C        15.7323156363        6.4108913529        5.3104895105
  H         6.8268040632        7.7521439639        3.2744567400
  H         7.4717030795        7.6009826723        1.7053425541
  C         5.9216528498        6.3861826361        2.0550788527
  N        11.5135947709       -0.2437057187        1.9549246282
  C        12.0633237347       -0.0047669563       -0.2584293888
  C        12.3810556043        2.1565676974       -1.2882084303
  H        12.1538014262        3.8182383469       -0.1406091688
  H        12.4409588452        3.5250958192       16.9491735202
  H        13.9090982245        2.9039691833       17.9578597181
  H        12.4108713618        2.1213688197       18.0224383604
  S         6.0556511592        6.5058907256       18.3846572809
  C         5.9798968866        9.2313717715       18.7919927095
  H        15.9622042736        5.5568389951        4.6993624519
  H        16.4989406367        7.1296096005        5.0917460860
  C        15.8967796326        5.9214708490        6.7979455977
  H         5.2568159099        5.9057638397        2.8234483298
  H         6.2360471908        5.5337572938        1.4528552426
  C         4.9039865620        7.2681437536        1.2834721507
  S        11.6469743218       -1.8061457272        1.3737082162
  N        12.0108085745       -1.3882579036       -0.1437399481
  C        12.3179324407        0.6746710476       -1.4204772661
  H        12.5935014599        2.7747799344       -2.1625401373
  C         5.9275783291        7.1864810623       20.0047176960
  N         5.8823050723        8.5838845128       20.0256005733
  O         6.1470197232       10.4066705205       18.4571087520
  H        15.7069752126        6.5774318237        7.6528710631
  H        15.1979404541        5.1230292009        7.0485876746
  C        17.2310952835        5.1767083989        7.0787185881
  H         5.3859861611        7.7904321313        0.4646259058
  H         4.2129388964        6.5834567241        0.9240644315
  C         4.2512750172        8.3785318193        2.0744520321
  C        12.5786994762       -0.0938336274       -2.5985478020
  S         5.7361231617        6.3796130443       21.5722567936
  C         5.9381928050        9.3461809067       21.3063401479
  H        17.2459001252        4.4635979448        7.8781308563
  H        17.4286406311        4.5052042961        6.3043365395
  C        18.3307177761        6.1212258391        7.1215059570
  H         5.1127781670        8.9407216442        2.5619308384
  H         3.6070394193        7.8445201666        2.8052516968
  C         3.4832928527        9.4054409705        1.1832993881
  H        12.2530724431       -1.0642220220       -2.5761711923
  C        13.0909866146        0.2884124929       -3.8475030651
  H         5.2440021265        8.8357299819       21.9525926902
  H         5.4269614200       10.3208630648       21.1637603743
  C         7.3771850323        9.5219321323       21.8315603650
  H        18.7050520933        6.0920096166        8.1335797004
  H        18.0056404594        7.0961248734        6.7881746123
  C        19.4964438584        5.7352301884        6.2591509704
  H         2.8593238580        8.8699088024        0.3640344337
  H         2.8041538501       10.0079943014        1.7620361539
  C         4.3601725278       10.3530503802        0.5501357631
  S        13.6243542074        1.8509329661       -4.3389150097
  C        13.1919091935       -0.7883371748       -4.9098785746
  H         8.1069823767        9.5349871631       21.0265961405
  H         7.6661248308        8.7150442541       22.5555900664
  H         7.4771544161       10.4633500527       22.3869145288
  H        19.8672850038        6.5806852968        5.7354396588
  H        20.3579984085        5.2723978320        6.6673954415
  H        19.1301651638        5.2332714263        5.3713147925
  H         3.7869209217       11.1948999392        0.2257096235
  H         5.1722368286       10.5791521132        1.2269324814
  H         4.8014804743        9.8753239201       -0.2493333808
  C        14.1755210952        1.0335342296       -5.8031814794
  N        13.9410227643       -0.3150483940       -5.9281499731
  O        12.9100044521       -1.9815955264       -4.7841481381
  S        15.0205040061        1.7806898033       -7.2076760361
  C        14.1764301144       -1.1768167903       -7.0254734523
  H        14.3714071438       -2.2575007100       -6.7187296523
  H        15.0638618736       -0.9516015806       -7.5962987786
  C        12.8986343523       -1.0740604947       -7.8638029845
  H        12.4036431343       -0.2353782446       -7.5073220088
  H        12.1856672713       -1.8821789851       -7.7007563605
  H        12.9443317506       -0.9674936807       -8.8846604490
