352
 i =    44800, time =    22400.000, E =        99.1669580993
  H        10.5018521730        4.5938636326       30.7474705581
  C        10.6974175842        5.5331687593       31.3301587252
  H         9.6853850269        5.9490675848       31.3809085734
  C        11.6484699359        6.3704319154       30.5031585417
  C        11.4466207570        5.1431669026       32.6377197516
  C        11.8007302833        5.7681786908       29.1139680718
  H        11.1596531539        7.3511344263       30.5365883726
  H        12.5962907323        6.3590005467       30.9890988695
  H        12.4080921939        4.6417476685       32.4544799443
  H        11.7456605822        6.0213155976       33.1975064786
  H        10.9588439497        4.3864994601       33.3016081333
  C        10.5867015068        5.7939822771       28.2685177127
  H        12.0594154670        4.7085010636       29.2544110606
  H        12.6481145455        6.1244740402       28.5262127595
  C        10.8449126585        5.6312095759       26.8128742579
  H         9.9950913802        4.9638535042       28.4283472043
  H         9.9753110575        6.7921629019       28.4016718860
  C         9.6250845232        5.0221169062       26.1245645171
  H        11.6311192291        4.9228845126       26.6852297131
  H        11.2811285246        6.5310340205       26.3500784557
  C         8.3199860022        5.8896134499       26.0685546058
  H         9.9993039554        4.7811224564       25.1272302771
  H         9.3358260717        4.0554706767       26.5572959804
  C         7.2054356511        5.1391131194       25.3968435035
  H         8.0106000873        6.2534542719       27.0572733952
  H         8.5308188281        6.8072531073       25.5644696722
  C         6.9853979499        3.8037968540       26.0901676662
  C         7.5519455589        4.4199290222       24.1052875028
  C         5.9412908082        6.0663269248       25.1975345747
  C         7.1786377592        2.6852988784       25.2580300783
  C         6.5171716848        3.3590845845       27.3032622459
  C         7.4600404924        3.0214013988       23.9716136607
  C         8.0460910357        5.0041402956       22.9142807754
  H         6.2188069625        7.0402582384       24.8305330805
  H         5.7123309651        6.2720301070       26.2122886754
  C         4.7375317813        5.3827328920       24.5259346013
  S         6.8049940253        1.1954289365       26.0052235642
  C         6.4222146169        1.9916330359       27.4563990822
  H         6.3193452580        4.0003099052       28.0814312675
  C         7.8020141834        2.4666468609       22.7347917535
  H         8.1750096467        6.0745984157       22.9347961061
  C         8.4381035495        4.4469723547       21.7615558734
  H         4.9337730576        5.1080036214       23.5782145612
  H         4.5127133032        4.4264723218       25.0329533781
  C         3.4301228216        6.1984642169       24.6675327145
  C         5.8444888039        1.2850510158       28.6671207731
  C         8.3639643527        3.1228743406       21.6695884213
  H         7.5233504694        1.3970491870       22.5592786253
  C         8.8944643286        4.8126160831       20.5541247400
  H         2.6928697820        5.8914606242       23.9106850702
  H         3.5766115852        7.2050240085       24.3409241434
  C         2.8293515002        6.2972038533       26.0595674082
  C         5.9518530860       -0.1158245268       29.0095590757
  C         5.2893551249        2.1356974175       29.7210619705
  C         8.7576981371        2.4176294313       20.3870485618
  C         8.9887618584        3.7537416258       19.6883812622
  S         9.2376654152        6.3880783468       19.8676132566
  H         2.0812737178        6.9964515372       25.7571463697
  H         3.5205431050        6.7658677979       26.7610585378
  C         2.1847567737        5.0350234814       26.5720990373
  N         6.2885574186       -1.1000716065       28.1089127681
  C         5.6941089810       -0.6137089868       30.2590920246
  C         5.0736041799        1.6242599954       31.0324870543
  H         5.1407973093        3.1861719292       29.6116315635
  C         7.6341127054        1.7029371930       19.6317769738
  C        10.1112994355        1.7478052697       20.4806111103
  C         9.3581470243        4.1678371661       18.4077935394
  C         9.5655218990        5.5444525024       18.3298878398
  H         1.2793590879        4.7501599947       25.9599765500
  H         2.8744380936        4.2327464794       26.5308624336
  C         1.4466223232        5.2084410505       27.9673407791
  S         6.3839172640       -2.5330966339       28.8066690957
  N         6.0427888526       -1.9798153186       30.3174875090
  C         5.2268331890        0.1384363336       31.3606502824
  H         4.9054444947        2.4226170067       31.8181187986
  H         7.3454131249        0.8022340173       20.1319786586
  H         8.0174287990        1.2793034585       18.7589448490
  C         6.4197596308        2.4405508678       19.2304084560
  H        10.4988125752        1.4969098461       19.4465393875
  H        10.0080166154        0.8189430014       21.0092368968
  C        11.2399885981        2.4845816906       21.1570536331
  H         9.4989128506        3.3835635368       17.6641442611
  C         9.9718172395        6.3015247853       17.1044076578
  H         0.6296645053        4.4680295666       28.1103120521
  H         1.0660653201        6.2237908418       27.9577277408
  C         2.3149813549        5.2410886037       29.2696651661
  C         5.1013327083       -0.4687834890       32.6678460750
  H         6.6134396031        3.3528220403       18.5975177324
  H         5.8854947604        2.8127209493       20.1773181055
  C         5.4697871301        1.4482793106       18.4917178198
  H        11.0358681317        2.8637527331       22.1140293863
  H        11.5376154817        3.2965966168       20.5108935150
  C        12.5322830405        1.6330569705       21.2057326827
  C        10.2014479173        7.6865472343       17.0375913335
  C        10.1559138994        5.5417862124       15.8626757924
  H         2.7436604063        4.2869716006       29.5622834101
  H         3.2037040270        5.8890854979       29.2137986781
  C         1.5815859397        5.6051897607       30.5433733022
  H         5.4573782100       -1.4478663016       32.6115034781
  C         4.7277204786        0.0779950783       33.9168144043
  H         5.0795644236        0.6989852062       19.1913663004
  H         6.0115224735        0.8526968544       17.7213927795
  C         4.2777451106        2.1319787764       17.8102452441
  H        12.3490099433        0.7782713414       21.8549315046
  H        12.7234129481        1.2579506709       20.2227423977
  C        13.6720019565        2.5367883907       21.5964591374
  N         9.9267803735        8.6272213466       18.0169958875
  C        10.4361038132        8.3412616763       15.7952400237
  C        10.4803567221        6.1823864880       14.6725945542
  H        10.0468385797        4.4547806648       15.9250182260
  H         2.1315595827        5.5587637634       31.4937966587
  H         1.1653787059        6.6097298666       30.5976837400
  H         0.6863063910        4.9931702494       30.6524622264
  S         4.4331480288        1.7475001599       34.2895514761
  C         4.6131293006       -0.9066139191       35.0743854579
  H         4.2634990972        3.1436270487       18.1051341580
  H         4.4733174954        2.1815763673       16.7310563709
  C         2.7968941569        1.5753129000       17.9396569406
  H        13.4880681863        2.8902050125       22.6384191932
  H        13.9068615657        3.3762305472       20.8975498960
  C        14.9168090956        1.7104814980       21.7449068413
  S        10.1911096501       10.1024343622       17.4460533118
  N        10.5038177914        9.6852732357       15.9712943447
  C        10.5948623421        7.6623970240       14.5671371323
  H        10.6205489204        5.5407114851       13.8525582340
  C         4.1881387358        1.1067147820       35.9075268453
  N         4.2086704266       -0.2371153263       36.1572216761
  O         4.8729300281       -2.0741156524       34.9550398467
  H         2.2127411672        2.0375178552       17.0759614110
  H         2.2880527833        1.7410228397       18.8682630762
  C         2.7424626734        0.0877926195       17.6414644764
  H        14.7739192427        1.1697595179       22.7084143108
  H        14.9282711335        1.0882019032       20.8612645201
  C        16.2545141656        2.5041351273       21.8839238930
  C        10.9415814505        8.4063029498       13.4050812573
  S         3.7544671948        2.2719687727       37.1109020861
  C         4.0973545384       -0.8657233476       37.4621632592
  H         2.2852133191       -0.1066847448       16.6722566996
  H         3.7676465761       -0.1769458111       17.5747860266
  C         1.9520657441       -0.7621744515       18.6033760092
  H        16.1762149701        3.1744439246       22.7351658669
  H        16.2561068136        3.0478596129       20.9265278345
  C        17.3979550440        1.5507031190       21.9871677094
  H        10.9671017474        9.4516430608       13.5793107468
  C        11.4001501841        8.0697496625       12.1805969860
  H         3.4371010381       -0.3259423082       38.0175828100
  H         3.5166553484       -1.7498989338       37.3783770976
  C         5.5091871242       -1.1558162774       37.8584286448
  H         1.1320738547       -0.1999127263       18.9759818700
  H         2.5992503875       -0.9487883163       19.5109129368
  C         1.7222322782       -2.1184860150       17.9729722405
  H        17.1963033184        0.7799613904       22.7984705354
  H        17.5533029476        0.9918435978       21.0254014213
  C        18.7956230349        2.1931715043       22.4091795741
  S        11.7636225325        6.4833082103       11.5327395969
  C        11.7102639491        9.1197033686       11.2201390620
  H         5.5735175156       -2.2475293854       37.8852633941
  H         6.3015957071       -0.6807170533       37.2468437797
  H         5.6711888038       -0.8176344053       38.8457858349
  H         2.6369473406       -2.7155416521       17.9269223476
  H         1.3169311860       -1.9683784077       16.9995867682
  H         1.0098184714       -2.6231335545       18.4724348657
  H        18.8262225491        2.0434615819       23.4370413099
  H        18.6900836319        3.2868788746       22.2106676933
  H        19.5795989725        1.7512344389       21.8442701223
  C        12.2398961118        7.3145384927       10.0410401038
  N        12.2684970153        8.6688728067       10.1134822405
  O        11.5301161484       10.3410220822       11.4229010274
  S        13.0491546842        6.4350444605        8.7606744283
  C        12.5434868034        9.5700598891        8.9804725801
  H        13.0476995300       10.5515983529        9.2650947992
  H        13.2671208021        9.1454581280        8.2883912157
  C        11.1889903711        9.9123215725        8.2633985098
  H        11.2729435580       10.0361756473        7.2016588098
  H        10.4734790255        9.0835817698        8.2636266122
  H        10.6511608073       10.8158384056        8.6340716653
  H         5.6520945591        2.4563382723       12.0710943027
  C         4.6641851310        2.7023819790       12.4163316674
  H         4.7483768564        3.7314704678       12.7156172732
  C         3.5821927043        2.5375233818       11.3631600498
  C         4.3001028194        2.1296120188       13.8605588756
  C         3.9905721112        2.6918768216        9.9134354618
  H         2.8252316344        3.3115133264       11.4493393619
  H         3.0689499430        1.5587140924       11.4112301671
  H         4.0613571660        1.0110445316       13.8214745544
  H         3.5463357388        2.6211049045       14.5204673158
  H         5.1617106116        2.3301909066       14.4835924253
  C         4.8699922898        1.5769138641        9.2444536602
  H         3.1509746749        2.8591552711        9.3596731676
  H         4.6101452474        3.5840572002        9.7326939396
  C         5.7416088362        1.9087174106        8.0381796132
  H         4.1496410656        0.7809313295        8.9516201072
  H         5.4237378796        1.1838363803       10.1557449749
  C         6.9540694402        2.8110552463        8.2901118914
  H         5.1419775079        2.4289542077        7.2739802783
  H         6.0191026472        1.0371457369        7.5098705198
  C         8.1467358982        2.0302374316        8.7716951437
  H         7.0747082603        3.3206163344        7.3785428076
  H         6.6265302338        3.4888095863        9.1183583079
  C         9.3707224627        2.8806290054        9.0121075655
  H         8.5339591505        1.3550879134        8.0275618542
  H         7.9341229721        1.4996712419        9.6527006048
  C         8.8974763727        4.2193326569        9.6333949868
  C         9.7660784897        3.5469523267        7.7389365793
  C        10.4698686825        2.1551768122        9.7900787305
  C         9.2458794323        5.2889568428        8.8192704543
  C         8.3224673671        4.6871722261       10.8108496802
  C         9.6518810065        4.9032637980        7.5811818122
  C        10.1793010307        2.9711797849        6.6097822705
  H        10.2408647413        1.4172399795       10.5469331408
  H        10.9186403821        1.4259292167        9.1379665213
  C        11.5741762670        3.2265334554       10.1070065625
  S         8.8009046961        6.8382299216        9.4955147070
  C         8.2944756691        6.0545642625       10.9090365616
  H         8.0858443010        3.8784903741       11.4999173045
  C         9.8801554818        5.5926787745        6.4080598986
  H        10.3017491243        1.9217411917        6.5429307869
  C        10.4424320154        3.5482820348        5.3998942774
  H        11.0776649979        4.0444520372       10.5924301662
  H        12.1522635721        3.5123722990        9.1932778505
  C        12.6010156688        2.6717051749       11.0971338533
  C         7.7498877948        6.7629860350       12.1877197223
  C        10.3373462918        4.9459691731        5.2251019733
  H         9.8512528361        6.6721681891        6.4602355234
  C        10.8901753884        3.1226135667        4.1307983416
  H        13.4856531377        3.2844472889       11.1094659409
  H        12.7578187811        1.6153832926       10.9048582444
  C        11.9316035153        2.6822603773       12.4264016497
  C         7.7408391946        8.1963308714       12.3700946462
  C         7.4474432938        5.9739172380       13.4166494018
  C        10.8626337729        5.5452015492        3.9768075651
  C        11.0558573521        4.2109714204        3.2822898775
  S        11.1840371643        1.6226431939        3.3005659271
  H        11.6779164693        3.6378327162       12.8754825426
  H        11.0268370397        2.0681324762       12.4080224092
  C        12.8657311683        2.0510145163       13.5116482932
  N         8.0142716416        9.1131806235       11.3665512372
  C         7.4355650150        8.8531750030       13.5969413394
  C         7.0778700022        6.6665589802       14.5758416203
  H         7.4520137411        4.8811860109       13.4258034845
  C        12.3088959193        6.0818053914        4.1667894201
  C         9.8713366726        6.4480502351        3.2814888883
  C        11.4603903186        3.8172365181        1.9714649639
  C        11.6475492224        2.4318786852        1.8795024570
  H        13.8412123740        2.4659821181       13.3378533404
  H        12.8614256319        0.9595939059       13.4743615604
  C        12.3806916248        2.4165501242       14.9341332816
  S         8.0357853777       10.6042058044       11.9748682296
  N         7.6571894976       10.2716059911       13.5401337599
  C         7.1646316375        8.0937854230       14.8172425482
  H         6.8975401405        6.1419211921       15.4684940735
  H        12.3067271830        6.9198848672        4.8343469362
  H        12.7729263485        6.3103870125        3.2097417282
  C        13.2796088390        5.1516402640        4.8955485401
  H         9.6375130575        7.2782862005        3.9108257280
  H        10.3459892117        6.8260415034        2.4318259611
  C         8.5929299516        5.7144186354        2.9602261344
  H        11.7185201423        4.6014631166        1.2781803968
  C        12.0056229274        1.7171219439        0.6112056312
  H        12.2420165528        3.5215455168       14.9574516275
  H        11.4157913549        1.8386769605       14.8208967336
  C        13.3094706036        2.0211438550       16.0700040423
  C         6.9079780325        8.7977902221       16.0269223694
  H        12.8505198710        4.9089125376        5.8743812171
  H        13.5321018291        4.2233162532        4.4038753666
  C        14.5598944670        5.8251612644        5.3148068921
  H         8.2202743075        5.2018567952        3.8476309757
  H         8.9669410057        4.9383675137        2.2279806267
  C         7.6214076817        6.7160973398        2.3263551692
  C        11.9717632491        0.2995051918        0.4547188815
  C        12.0148444448        2.5020853468       -0.6590264080
  H        14.1701076932        2.7045766376       16.0725028516
  H        13.6213047050        0.9684316307       15.9455431255
  C        12.7634907378        2.1070256712       17.4346042876
  H         6.7659491967        9.8822297695       15.8433823551
  C         6.6018832474        8.3969389989       17.2867041671
  H        14.2457931037        6.6332657217        5.9739101471
  H        15.0286918289        6.2793170683        4.4509640543
  C        15.6555927294        5.0584515512        6.0246735645
  H         7.6076230399        7.5947703309        3.0036060542
  H         8.0412582251        7.0618016511        1.3274731677
  C         6.1616372891        6.2063891223        2.1887269085
  N        11.8691743847       -0.6246108641        1.4930239004
  C        12.1995754476       -0.3218793228       -0.7462072957
  C        12.2157241864        1.8511074676       -1.8653427652
  H        11.8455776588        3.5380183749       -0.6752875487
  H        12.1457044118        1.2523119508       17.6965239044
  H        12.1194329556        3.0986930271       17.5954200687
  H        13.6423028958        2.2236526271       18.0472629663
  S         6.5632207503        6.7014013565       17.9038303417
  C         6.4230732092        9.4637051440       18.2500354456
  H        15.1907064927        4.3410728938        6.7273457416
  H        16.0895363612        4.6158719682        5.0943099473
  C        16.6629119818        5.9623470353        6.7145520658
  H         5.7330675741        5.8595460156        3.0943443953
  H         6.0581933569        5.3572289597        1.5421510282
  C         5.3347165939        7.3660500923        1.5890178500
  S        11.9824944661       -2.1283685238        0.8681468100
  N        12.2986823544       -1.6625405432       -0.6601488566
  C        12.4970827714        0.3869290143       -1.9051198906
  H        12.2701427201        2.4878806483       -2.7497576767
  C         6.1487333576        7.4529184885       19.4217497048
  N         6.2598278360        8.8090565437       19.4303718868
  O         6.6548856130       10.6343982104       18.0224717402
  H        16.7538009763        6.9090816126        6.2524708867
  H        16.2379456579        6.3478298641        7.6197021659
  C        17.9816293833        5.1628577709        6.9796221163
  H         5.9387070196        8.1669046945        1.1817939459
  H         4.6551980867        6.9492894099        0.8443063116
  C         4.4477055897        7.9887661778        2.6946479277
  C        12.8510732240       -0.2924283369       -3.1520296534
  S         5.8442875328        6.6922693847       21.0170419880
  C         6.1403332737        9.6323756603       20.6379894194
  H        17.8962575247        4.5618372697        7.8560822919
  H        18.1955412451        4.4424348336        6.2000079245
  C        19.1705452075        5.9885301502        7.1678795469
  H         4.9443795142        7.8076404051        3.6812618263
  H         3.5070049697        7.4872971324        2.7363878058
  C         4.1169458271        9.5083392665        2.6940086030
  H        12.8662730490       -1.3346623544       -3.0637578921
  C        13.3300370692        0.1463096128       -4.4139308624
  H         5.4212898663        9.2171850656       21.3458179060
  H         5.9520870952       10.6600987379       20.3708781699
  C         7.5792920926        9.7938698786       21.2426837880
  H        19.6766515416        5.6907949275        8.0522804172
  H        18.8306167122        6.9562362971        7.4895238590
  C        20.1541565125        6.0052308650        6.0453209736
  H         3.5302394718        9.7417458611        3.5224358272
  H         5.0928097740       10.0322588939        2.7391587283
  C         3.4328591096       10.0199154103        1.4322539553
  S        13.7849789892        1.7709554541       -4.8651345884
  C        13.5662026327       -0.8754242826       -5.4967946999
  H         7.7590134989        9.0338656141       22.0144246527
  H         7.8286140248       10.7702525603       21.6361308462
  H         8.3224368826        9.6449127677       20.4645958399
  H        20.8010934113        5.0703434789        5.8961262475
  H        19.6501770684        6.1422452856        5.0955395807
  H        20.7889538082        6.8350362468        6.0338652586
  H         2.5990185125       10.5864246869        1.7731836063
  H         4.1489014955       10.4766710361        0.7812749163
  H         3.0130577845        9.1758720374        0.9295527032
  C        14.1381151888        1.0576390648       -6.4578000469
  N        14.0930030577       -0.2971594786       -6.5351355647
  O        13.3522767848       -2.0988751975       -5.3062456977
  S        14.7920342684        1.9994709976       -7.8289829748
  C        14.4754055285       -0.9766791681       -7.7749731267
  H        14.9118897464       -1.9316022180       -7.3524605854
  H        15.1356209011       -0.4943800898       -8.4842420477
  C        13.2189008091       -1.4070703981       -8.5537192303
  H        13.1024736439       -2.5063104974       -8.7170999441
  H        13.2600090051       -1.0663089634       -9.5607563053
  H        12.2874898486       -0.9301071231       -8.0912678440
