352
 i =    14700, time =     7350.000, E =       115.8113384161
  H        10.4699940708        4.2347315549       32.6988845023
  C        10.6209164289        5.2723923668       32.8151678799
  H         9.9968423682        5.5191573626       33.6585859134
  C        10.2138714150        6.0247833425       31.5649760860
  C        12.0817841515        5.3680171018       33.2120205634
  C        10.6504405169        5.5410114628       30.1986958573
  H         9.1472497852        6.0663150487       31.6453941425
  H        10.7044506670        7.0521449340       31.5525551861
  H        12.2190768559        5.8741573327       34.1920389966
  H        12.3701332308        4.3297746455       33.4201790932
  H        12.8636648690        5.6270732176       32.4755262836
  C        10.3168359797        6.4561398732       28.9502789914
  H        10.1745471872        4.5804832191       30.0369556429
  H        11.7315018816        5.3651719552       30.2187126209
  C        10.6049318492        5.7635662546       27.6602613737
  H         9.2444329362        6.5525873889       28.8711449140
  H        10.8219506798        7.3884965648       28.9770530646
  C         9.5170395776        5.0283658439       26.9977328588
  H        11.3635643102        5.0865838290       28.0079462612
  H        11.1194469758        6.4647099675       26.9924397677
  C         8.3605374033        5.8954379668       26.3610852964
  H         9.9769284490        4.3652155311       26.2027731572
  H         8.9663304792        4.4670977461       27.7494631757
  C         7.3818508583        5.0204363407       25.5755693723
  H         7.9939030962        6.4920421425       27.1906015538
  H         8.6882536134        6.6788594399       25.6934299600
  C         7.0725287393        3.6286568567       26.1782585646
  C         7.7979282689        4.2881019233       24.2970522184
  C         6.1450336633        5.8699367983       25.1849042625
  C         7.3112342736        2.5460348733       25.4047013409
  C         6.4400749387        3.2080442500       27.3849269043
  C         7.8268170353        2.9347062688       24.1852073004
  C         8.1707284455        4.8895804411       23.1638599759
  H         6.2632748339        6.3869987080       24.2920661877
  H         6.0763890046        6.7599522362       25.7884910416
  C         4.7836864398        5.1973307729       24.9732811738
  S         6.8855969781        1.0246621390       26.1288287498
  C         6.3567382444        1.8790490677       27.4919681365
  H         6.0981508283        3.9925305518       28.0656377499
  C         8.2450940544        2.3272065349       23.0030513564
  H         8.1317120406        5.9665751709       23.0354376160
  C         8.5859513287        4.3492533884       22.0340906190
  H         4.9387450516        4.4873178778       24.1766077517
  H         4.5187090237        4.5603605623       25.8293132816
  C         3.6704113918        6.2566057017       24.7326815069
  C         5.8959436861        1.1723005386       28.7381457335
  C         8.5796565213        3.0043640782       21.8693903498
  H         8.0553265572        1.3002020569       22.9157436184
  C         8.9762088065        4.8587248485       20.8152124141
  H         2.8447453707        5.9049717671       24.1608305430
  H         4.1753148155        6.9831849288       23.9877992268
  C         3.0746913941        6.7033605490       26.1093930742
  C         5.8983936422       -0.2059788218       28.9858855401
  C         5.2925902099        1.9716337197       29.8430501759
  C         8.8993228120        2.4125985966       20.5443702916
  C         9.1645244117        3.7991615851       19.9475420196
  S         9.1252270661        6.3806415276       20.0674473046
  H         2.3662687164        7.4546581181       25.7633673504
  H         3.9344804995        7.1400153349       26.5494466095
  C         2.2709472306        5.5395542684       26.8756483389
  N         6.1584843989       -1.1735432824       28.0438420362
  C         5.5399124239       -0.7285453618       30.2394565557
  C         4.9661169661        1.4831052903       31.1035804771
  H         5.1464352025        3.0120923209       29.7387938455
  C         7.7401374596        1.7186326417       19.8717923569
  C        10.1764929974        1.5156054376       20.5807340312
  C         9.5835483986        4.1969803896       18.6646577241
  C         9.6147171592        5.5652777708       18.5527760108
  H         1.6575062609        4.8820332002       26.1503594669
  H         2.8877761675        4.9443722436       27.4157430355
  C         1.2590823872        6.1513256386       27.7888137867
  S         6.0866205608       -2.6133897672       28.8001935640
  N         5.6843643444       -2.0790906494       30.2663711642
  C         5.1518037985        0.0765215550       31.3653786214
  H         4.6822762175        2.1104708712       31.9606288873
  H         7.3991613942        0.8921169662       20.4680334020
  H         8.0590809744        1.4588750427       18.8505267494
  C         6.6022753806        2.6253998483       19.6689107460
  H        10.1703308324        1.0048395324       19.6103727259
  H         9.9173279671        0.6836335965       21.2585648554
  C        11.4940964759        2.2545178873       20.9779441443
  H         9.6319050664        3.4601230597       17.9316046408
  C        10.0096469105        6.1550909988       17.2632466613
  H         0.5355688715        6.7194508280       27.3059514606
  H         1.9462383173        6.7990276768       28.3371023646
  C         0.6250920708        5.1092376122       28.6724772594
  C         4.8474487966       -0.5599517963       32.6453738350
  H         6.8784679089        3.3861798958       19.0055558766
  H         6.3041172397        3.1059443362       20.5682959029
  C         5.3820814931        1.8341357700       19.1211272633
  H        11.3958210213        2.7811922985       21.9347383553
  H        11.7219893168        2.9945588551       20.1804910783
  C        12.6294289279        1.1961668939       21.0032526367
  C        10.0615575124        7.5796832448       17.0266583340
  C        10.2624131972        5.3618608205       16.0249102120
  H        -0.4785399127        5.1156165005       28.4731350953
  H         1.0077617228        4.0959185210       28.3688046159
  C         0.9774096041        5.3265494418       30.1483850771
  H         4.8982148702       -1.6173185249       32.5300844467
  C         4.5381527034       -0.1420901461       33.8999044839
  H         5.2548868144        0.8814605568       19.7013889345
  H         5.6441387413        1.4282980117       18.1051695768
  C         4.1026568352        2.7160712515       19.0062384828
  H        12.3507700889        0.3092057353       21.5186639913
  H        12.6896179546        0.9076366192       19.8786348431
  C        13.9005674234        1.8680018677       21.4863803245
  N         9.8300590779        8.5692560264       18.0177211351
  C        10.3762564564        8.1904157258       15.7507200432
  C        10.5358894739        5.9775424190       14.7639661727
  H        10.3545797116        4.3303896296       16.0681371258
  H         0.6675054310        4.3968871658       30.5806023842
  H         1.9978312307        5.5928870226       30.3060194132
  H         0.3663381445        6.2474642265       30.4498226915
  S         4.2093641511        1.4824525128       34.4406599362
  C         4.4777069386       -1.1945768439       34.9507223372
  H         4.3648880845        3.5072980797       19.7547396898
  H         4.1447337107        3.2317735862       18.0452564486
  C         2.8320736084        1.9443867590       19.2459146655
  H        13.9491805630        2.8665207476       21.0087644756
  H        14.6752058030        1.2194194407       21.1755267310
  C        13.9712804430        2.2224238251       22.9013514214
  S         9.7704206445       10.0736556516       17.2820626095
  N        10.2443700317        9.5812995451       15.8219345702
  C        10.6874248737        7.4659719205       14.6472686925
  H        10.6162555375        5.1911400391       13.9696962152
  C         4.0448630221        0.8279780538       36.0278154223
  N         4.2011231698       -0.5392883288       36.0824666018
  O         4.7985297061       -2.3638448410       34.8034660518
  H         2.0149025337        2.4803007927       19.5642578125
  H         3.0104418922        1.2127680738       20.0533336043
  C         2.4993992937        1.0185880702       18.0136660184
  H        13.3002252711        3.1365222483       23.1815041580
  H        13.6786629910        1.3649936397       23.5001105238
  C        15.3487365292        2.8167463581       23.2352762938
  C        10.9080071646        8.0977033945       13.4172158372
  S         3.7295455954        1.7773990593       37.5189102469
  C         4.3067695811       -1.2795567540       37.3425408825
  H         1.7922550087        1.5659414589       17.3641073868
  H         3.3711613805        0.8536892351       17.4504274921
  C         2.0054713831       -0.3249113153       18.3864763309
  H        15.3653518794        3.2695349941       24.1988548636
  H        15.5978161832        3.5250523028       22.4135773284
  C        16.4874217383        1.8150895333       23.4306746270
  H        10.6462941201        9.0892453007       13.4509083203
  C        11.4834160535        7.6678588558       12.2381268211
  H         3.5903145142       -0.8874800542       38.0020220006
  H         4.1686904104       -2.3835219119       37.1697388423
  C         5.7023492909       -1.1450362254       37.9833132079
  H         1.0503127749       -0.2105567651       18.9528625519
  H         2.6717399193       -0.8349328336       19.1433194275
  C         1.8612605211       -1.4748707116       17.2621984908
  H        16.9769266213        1.9698324550       24.4114752463
  H        16.1430299433        0.8062193743       23.4923742456
  C        17.5659034977        2.0383648594       22.3490769181
  S        11.9649102316        6.0493858638       11.8834960520
  C        11.6370501885        8.6171873542       11.1164759921
  H         6.4437424498       -0.6636085279       37.3565620196
  H         5.5000981783       -0.5441449522       38.8721452066
  H         6.0880732848       -2.0857538501       38.2580873362
  H         1.2556894152       -2.2655081496       17.7029323209
  H         2.7546502253       -1.9803593633       16.9126450810
  H         1.4368433904       -1.0713450681       16.3343975013
  H        18.2565000024        2.7908093290       22.7147821057
  H        17.1706730716        2.2722986502       21.4245010508
  H        18.2833038676        1.1983121909       22.2488316485
  C        12.3099014592        6.6629680069       10.2775512754
  N        12.2588411816        8.0297503566       10.0990647518
  O        11.3549136686        9.7471121111       11.2555821488
  S        12.9756588967        5.7616286961        9.0505977793
  C        12.5957002873        8.8731667425        8.9176454058
  H        12.9593536715        9.7906233888        9.2926902403
  H        13.4636945937        8.6726655435        8.3372454881
  C        11.2918108765        9.1025347479        8.0646442282
  H        11.2787924911        8.5386631953        7.1821373391
  H        10.3368841634        9.0796464475        8.5944143552
  H        11.2480779538       10.1087843572        7.7418869483
  H         4.7812704931        1.7118542098       12.7696772554
  C         4.0254019628        2.4929186934       12.8659080884
  H         4.6938835635        3.3643191590       12.8025346560
  C         2.9959751124        2.4120432162       11.7328408319
  C         3.3583748360        2.4891517658       14.2333204065
  C         3.6049850768        2.6586094975       10.3392439160
  H         2.2396298485        3.2087291569       11.7976375330
  H         2.4325571328        1.5547448770       11.7290612003
  H         2.4752313049        1.8127361649       14.3301447149
  H         3.1070867407        3.4987226611       14.4995741033
  H         4.0400554769        2.0664738769       15.0455304073
  C         4.2399647404        1.3784691038        9.7991935725
  H         2.9169337204        3.1418963883        9.6351029785
  H         4.4030833490        3.3311194304       10.4860391437
  C         4.8974220086        1.5332489191        8.4126532776
  H         3.5117241172        0.6189196972        9.6173305026
  H         4.9323516488        0.9968086778       10.5444461501
  C         6.1558020809        2.4585807155        8.4686965349
  H         4.2282731403        1.9809690963        7.7224111754
  H         5.2183322371        0.5343676776        8.0379424781
  C         7.3919165585        1.7730527023        9.0714523717
  H         6.2756995726        2.8605436545        7.4683429083
  H         6.0501630380        3.3636471306        9.0881480877
  C         8.5969062027        2.7592572749        9.3537643042
  H         7.6156421712        1.0346691273        8.3912339644
  H         7.0974877224        1.2959538779        9.9905041166
  C         8.2773575078        4.1009534343       10.0075315498
  C         9.1115368687        3.4599146419        8.0723825390
  C         9.7852579014        1.9479379549        9.9660698796
  C         8.6476621446        5.1682147830        9.1707190976
  C         7.6799368604        4.5711443516       11.2243931695
  C         9.1432673051        4.7918152527        7.9619319432
  C         9.6888599887        2.8675857648        7.0011436210
  H         9.5501112933        1.4714356776       10.9001974403
  H        10.0215755471        1.0606896230        9.3943963204
  C        11.0708221769        2.7975394363       10.1222521420
  S         8.4016306063        6.6400696072        9.9321470363
  C         7.6264519771        5.8779374331       11.3261712808
  H         7.2373038395        3.8601793415       11.9268670786
  C         9.6078415646        5.4319222185        6.8299683472
  H         9.7504586508        1.7661933364        7.0850971871
  C        10.1350807457        3.4246176285        5.8300134502
  H        10.8716783073        3.8757368544       10.1843104663
  H        11.6240817324        2.6574376406        9.1972760078
  C        11.9902073252        2.4386293633       11.2684109135
  C         7.2909736782        6.5257735561       12.6326932897
  C        10.1011802435        4.7688119324        5.7320035001
  H         9.6620675830        6.5060821103        6.6700767596
  C        10.5715930112        3.0022853935        4.5463526022
  H        12.6729226040        3.1946684807       11.3187443457
  H        12.5215539122        1.6067933013       10.9051901682
  C        11.3122812881        2.3081842697       12.5914501891
  C         7.4522593343        7.8974167332       12.9251222328
  C         6.7702082757        5.6962467332       13.8140916832
  C        10.4891573539        5.4320624782        4.4755152404
  C        10.8099865881        4.0795914632        3.7424123783
  S        10.8799322897        1.4792243981        3.7841538573
  H        10.4488205694        2.8942067823       12.5776789855
  H        11.0162825769        1.2716370482       12.7705160464
  C        12.1092425101        2.6439463881       13.7945007473
  N         7.8300126634        8.8191245692       11.9605982718
  C         7.3328005173        8.4850066626       14.1357873540
  C         6.4930645792        6.3521931849       15.0672602341
  H         6.3989630202        4.6247035910       13.7954828224
  C        11.7250309306        6.3642498782        4.6442983460
  C         9.3888812828        6.2729094235        3.7941017795
  C        11.1748027899        3.6507458974        2.4435816677
  C        11.1801340490        2.2602628156        2.2951567641
  H        11.3475109959        3.1658643520       14.4340217760
  H        12.8918216820        3.3218924807       13.4728690252
  C        12.6732643910        1.3716469062       14.4596826343
  S         8.0998448358       10.2514293915       12.6141253219
  N         7.6076794734        9.7926818658       14.1377835625
  C         6.8820165537        7.7713548662       15.3055384657
  H         6.0230709581        5.8401643157       15.8468061322
  H        11.4413541900        6.9806314465        5.4799224184
  H        11.8135807061        6.9831840854        3.7246239912
  C        12.9536454267        5.6008858578        4.9744612387
  H         9.2798181078        7.2005653326        4.3031781553
  H         9.8166128123        6.6210688265        2.8265491418
  C         7.9794615938        5.5921739828        3.5776607155
  H        11.3943218651        4.3872795821        1.6892457664
  C        11.6129352312        1.5126961314        1.0678012213
  H        11.8707843424        0.8338212764       14.9027382672
  H        13.2247992691        0.6767578453       13.7981142582
  C        13.6910033794        1.6762682925       15.5617506401
  C         6.6527352710        8.5389713289       16.4982826248
  H        12.9466639190        4.9194003959        5.8603252728
  H        13.2005952728        4.9394764377        4.1297501718
  C        14.1013743630        6.4441001229        5.2625277810
  H         7.5607951416        5.2598245629        4.5189892183
  H         8.1239550899        4.6634502213        3.0907787053
  C         7.0207634329        6.3211606245        2.7984321378
  C        11.6111095139        0.1145030429        0.9713895405
  C        11.8934204611        2.2988171936       -0.1817572085
  H        14.3011706648        2.5148331975       15.1683726509
  H        14.3289927744        0.8347118412       15.6902193082
  C        12.9644059846        2.1611004652       16.8459258980
  H         6.9654943124        9.5497341043       16.3533176341
  C         6.2672960557        8.2193409328       17.7734151689
  H        13.8230017724        6.9603235245        6.1851209202
  H        14.2454752989        7.2778668721        4.4678399728
  C        15.4074258474        5.5914601109        5.3287143244
  H         6.7821670750        7.3326303493        3.1349759826
  H         7.5157984692        6.4185128694        1.8227610961
  C         5.6768013869        5.5130883668        2.4957970468
  N        11.4296407719       -0.7982293348        2.0001862922
  C        11.9986901878       -0.4816853314       -0.2011673772
  C        12.2626105322        1.6632432584       -1.3706635032
  H        11.7727259745        3.3523811393       -0.2219905700
  H        13.6082089792        2.1273763023       17.7516917178
  H        12.0548314027        1.6416962442       16.9995391390
  H        12.6939117965        3.2185444420       16.7038445075
  S         5.9694566874        6.6319416997       18.4337894024
  C         6.1885403724        9.3053532918       18.8060307118
  H        15.2235891893        4.5846993156        4.9449422581
  H        16.1681048355        6.0489601356        4.6733210280
  C        15.9465362836        5.5086441618        6.7526703479
  H         5.1494010261        5.2814801754        3.4404638093
  H         5.8714067683        4.5462229586        1.9840868606
  C         4.6778276282        6.2370388173        1.6041787702
  S        11.5862157327       -2.3028786627        1.3649018406
  N        12.0106260904       -1.9027648109       -0.1030287842
  C        12.2909219581        0.1806568983       -1.4548183989
  H        12.7164357675        2.2116222735       -2.1781887727
  C         5.9622518510        7.3486851822       20.1060995714
  N         6.0783213315        8.7020173159       20.0391516741
  O         6.4077254388       10.4875133119       18.5821465571
  H        16.0131224722        6.4941037478        7.1700246616
  H        15.2920543291        4.9495044969        7.3234155806
  C        17.3040912279        4.9304058966        6.6871043081
  H         5.1312071624        6.6058345685        0.7535273295
  H         3.9899057719        5.5876968537        1.1286465149
  C         3.9178833123        7.2289713833        2.3001640848
  C        12.7411913535       -0.5630879646       -2.5274425802
  S         5.7062751961        6.5231379314       21.5975988484
  C         6.0634749821        9.3920869818       21.2879729432
  H        17.4970528651        4.4749070234        7.6613100887
  H        17.2973513287        4.3003722531        5.8432899473
  C        18.4204103911        6.0091547542        6.7917214600
  H         4.2899472874        7.3257853460        3.3201044984
  H         2.8912073858        6.8524425661        2.4297060827
  C         3.6803031224        8.4374356784        1.3879313767
  H        12.3241521015       -1.5555036791       -2.7031364852
  C        13.2555752258       -0.2855951779       -3.7898862283
  H         5.3925848129        9.0588142999       22.0799265141
  H         5.6065929745       10.3062076664       21.1922920101
  C         7.5701498449        9.5353606236       21.6891887645
  H        18.8954095343        5.9994767610        7.8001385361
  H        17.9439812174        6.9506479368        6.7167442504
  C        19.6128041570        5.8865307536        5.8358880250
  H         3.4282273901        8.0866498389        0.3709684829
  H         2.7778582046        9.0833616318        1.6008870081
  C         4.8373965317        9.4907543079        1.3312209237
  S        13.8496264600        1.2516132314       -4.3263287152
  C        13.4335451258       -1.4384939896       -4.7591001152
  H         7.5701087399        9.7815708517       22.7848177680
  H         8.0807908709       10.3191780713       21.0989743761
  H         8.0220559717        8.5586887426       21.6552889388
  H        20.4356845570        6.6179246339        6.0685175164
  H        19.9830182754        4.8754152251        5.8443604896
  H        19.3334400670        6.0792497897        4.7953290961
  H         4.3801683323       10.4876843506        1.3653816304
  H         5.5394089073        9.4277257444        2.1839594880
  H         5.3278224781        9.2973641775        0.3687418378
  C        14.1332936753        0.4379735801       -5.8571024825
  N        14.0462710049       -0.9162024673       -5.8643396826
  O        13.1459122016       -2.5579974584       -4.5532146198
  S        14.7794932067        1.2494629126       -7.3338121268
  C        14.4395610666       -1.6760710391       -7.0382120638
  H        14.7331246799       -2.6791570375       -6.8026179705
  H        15.3820099225       -1.3694729164       -7.4754337578
  C        13.3552143467       -1.6230909980       -8.0812710988
  H        13.8002825894       -1.6016260305       -9.0658069876
  H        12.5991129838       -0.8104633481       -7.8276828681
  H        12.8751431280       -2.6261192805       -7.9840551324
