352
 i =   120500, time =    60250.000, E =        99.4719554993
  H        10.3189221688        7.2419863952       32.6189238077
  C        11.0280892410        6.3878467271       32.7773538923
  H        11.8513151923        6.7937365628       33.3696937159
  C        11.6199595591        6.0744636102       31.4066396642
  C        10.3170806148        5.1572425448       33.3286269972
  C        10.5581986447        5.5810608499       30.4429128081
  H        12.2417027757        6.9121633202       30.9856394728
  H        12.4147569753        5.2827328368       31.5425689561
  H         9.2782148624        5.4178070065       33.1838851518
  H        10.5210617333        4.1840868470       32.9965312535
  H        10.5441479764        5.1302355741       34.4117835241
  C        11.2356412748        5.0014209564       29.1351082664
  H         9.8223636086        6.3619710188       30.2498379689
  H        10.0191363611        4.7220956588       30.8234338538
  C        10.6112672489        5.6198994880       27.8385884706
  H        12.3153001560        5.2668614534       29.0910297628
  H        11.1817983155        3.8756899787       29.2264920443
  C         9.2188447926        5.0223418558       27.6076879615
  H        11.2539923959        5.4396841231       26.9611534750
  H        10.3370348275        6.7013301770       27.9577895718
  C         8.4313684140        5.8200972813       26.5501729655
  H         9.3236643011        3.9624658083       27.2388968417
  H         8.7227365909        4.8912978613       28.5586130726
  C         7.1978866950        5.0458002369       25.9098952536
  H         8.2091609417        6.8251428194       26.9323017922
  H         9.0044956363        6.0083736618       25.6651688201
  C         6.8582254096        3.6093295471       26.5161526913
  C         7.6195851313        4.4024716796       24.6679216035
  C         6.0279793160        6.0400589818       25.7890899107
  C         6.9325295074        2.5981159484       25.5407610671
  C         6.3220742055        3.1527013864       27.7333426069
  C         7.5374695756        3.0390425724       24.3860027253
  C         8.0754972978        5.1202272603       23.4955740879
  H         6.4027579275        6.7368865879       25.0439871269
  H         5.8548564412        6.5854288722       26.7561238762
  C         4.7605732189        5.4546455841       25.2850258086
  S         6.3100905619        1.1276753948       26.1151651367
  C         6.1229953907        1.7983869201       27.7295850766
  H         6.1559028522        3.9305430368       28.4559859089
  C         7.9073094677        2.4594645093       23.2410183440
  H         8.0145588589        6.2005840704       23.5697920554
  C         8.4457413541        4.5326259034       22.2861598298
  H         4.9522779963        5.1199048910       24.2466855511
  H         4.5912218651        4.4265496543       25.7798010130
  C         3.5653515253        6.4297516862       25.3277354980
  C         5.5798715876        1.0310053331       28.9040831219
  C         8.2766689443        3.1523870169       22.1414248407
  H         7.7581431666        1.4249795530       23.2353480247
  C         8.7592153989        4.9329820148       20.9625585757
  H         2.9145416139        6.1216633237       24.5194272954
  H         3.9181271529        7.4136093312       25.0950673635
  C         2.7480155428        6.3281279611       26.6277092091
  C         5.6425560706       -0.3784468461       29.1662443436
  C         5.1274293625        1.8750764158       30.0802837484
  C         8.5670126901        2.4525256686       20.7766600720
  C         8.8212733081        3.8554309906       20.1045176017
  S         8.9882778704        6.4444881967       20.1474738470
  H         1.8867490516        6.9057741567       26.4123456287
  H         3.2793745174        6.7479093799       27.4999975387
  C         2.2285883207        4.8790782154       26.9630128422
  N         6.0025909086       -1.3003730441       28.2089674352
  C         5.4276539660       -0.8853118315       30.4251769560
  C         4.9275826822        1.3299559590       31.3462830861
  H         4.8515032443        2.9461691122       30.0475257518
  C         7.4304230629        1.7281281698       20.0127582097
  C         9.8004970822        1.6271605872       21.0330858608
  C         9.2680601601        4.2851585881       18.8165410858
  C         9.3071283061        5.6488988599       18.7059556193
  H         1.9425078405        4.4317247340       26.0268571490
  H         3.1360320496        4.2384276005       27.1226309689
  C         1.1280168140        4.9059317609       27.9687221099
  S         5.8885930941       -2.7458408330       28.8870131746
  N         5.5840601719       -2.2665436044       30.4543795104
  C         5.1232979195       -0.0908748457       31.6185243075
  H         4.5116956215        2.0110745675       32.0896768628
  H         7.0658742750        0.8335074007       20.5446084697
  H         7.8476803412        1.2860997037       19.1422901692
  C         6.2841226893        2.6250618020       19.5575991312
  H        10.1736213436        1.1123011993       20.1234752690
  H         9.6545641608        0.8887118419       21.7159639698
  C        11.0617623092        2.3848196893       21.4583437919
  H         9.4499885381        3.5540077894       18.0160141439
  C         9.6337813764        6.3741066427       17.4650061349
  H         0.7082481893        3.8842897258       27.9662121377
  H         0.2200784246        5.5099744887       27.6572593672
  C         1.5076263394        5.3883697700       29.3283438434
  C         4.8581118703       -0.7851915212       32.8758823115
  H         6.6574221876        3.1737315569       18.6695944871
  H         6.0029427796        3.2975548471       20.3914848922
  C         5.1877943023        1.6954891040       19.0638946068
  H        10.9749566367        2.9201712745       22.4068249091
  H        11.3264476621        3.0904899929       20.7405682313
  C        12.2559317463        1.4147295304       21.6725895818
  C         9.8181542857        7.8292639012       17.2702284968
  C         9.8077466919        5.5700696290       16.1652795981
  H         1.5980617069        6.5279041123       29.2326640104
  H         0.6530048259        5.2589598903       29.9994820978
  C         2.7521810489        4.8673790651       30.0479765099
  H         4.7691448516       -1.8363866762       32.8871449910
  C         4.6270032259       -0.2896939019       34.1526045264
  H         4.7477432904        1.2938214798       19.9518626228
  H         5.5819221532        0.8374518388       18.5103868533
  C         4.1909367184        2.3511021579       18.1132159700
  H        12.0964200397        0.8901583089       22.5824062077
  H        12.3126325612        0.6590841658       20.8182413765
  C        13.5579297998        2.2591482252       21.6702494121
  N         9.4611052963        8.8174501609       18.1814520341
  C        10.1241659426        8.4136656670       16.0085317344
  C        10.0453889350        6.2240087373       14.9656766880
  H         9.6419348823        4.5223216031       16.2536842845
  H         2.3378535273        4.3352231664       30.9099890148
  H         3.3918849829        4.1722690195       29.4706449732
  H         3.3975582318        5.6641154217       30.4300294298
  S         4.4524075780        1.2959411314       34.7346723862
  C         4.4203815682       -1.3811588389       35.1493826436
  H         4.2280905938        3.4657512471       18.3333973201
  H         4.5685534576        2.1735713178       17.0578581114
  C         2.7627292391        1.6910562245       18.3185094522
  H        13.4110522817        3.0445081062       22.3747822092
  H        13.9313823307        2.6892165048       20.6918571913
  C        14.7007135151        1.5745404423       22.2453849184
  S         9.5606150813       10.2684154824       17.4075695424
  N        10.0874237300        9.7822241608       16.0109640372
  C        10.3142746527        7.6762957666       14.8224022347
  H        10.1464650605        5.6255538909       14.0458576300
  C         4.0020738888        0.6003591614       36.2930329238
  N         4.0224523589       -0.7794146617       36.2917084372
  O         4.5806623487       -2.6040237823       34.9791362920
  H         1.9514707558        2.3703881532       18.1956147895
  H         2.6052215829        1.3425590756       19.3228330027
  C         2.6069900646        0.4154200352       17.4407597757
  H        14.6130629908        1.6104568341       23.3230419977
  H        14.7722992259        0.5259606334       22.0494424334
  C        16.0509640137        2.1549665614       21.8507791382
  C        10.6129396775        8.4191688129       13.6377297007
  S         3.4358730372        1.3280526011       37.6921049593
  C         3.8900317769       -1.4713089682       37.5746074293
  H         2.2985282899        0.8430680575       16.4552359806
  H         3.5344167082       -0.1365790457       17.1923760300
  C         1.4850148963       -0.5363461970       17.9281070763
  H        16.1448240049        3.1962172052       21.8977956802
  H        16.0789017141        1.9440435235       20.8198403787
  C        17.1603368069        1.4155578395       22.4458715901
  H        10.1947477835        9.4395265793       13.5478895514
  C        11.2133174759        7.9784015466       12.4582889336
  H         3.0068164261       -1.1485613085       38.1074968571
  H         3.7284618863       -2.5263522253       37.4030072939
  C         5.0891704979       -1.2457097793       38.4856827105
  H         0.6530674639        0.1027855133       18.0858497325
  H         1.6897350681       -1.0977393103       18.8912024751
  C         1.1134286986       -1.4465755034       16.6999528548
  H        17.0846866455        0.4176985515       22.0815094285
  H        18.0649344616        1.8109962896       22.0383399289
  C        17.1813595999        1.3667340717       23.9488476159
  S        11.9861317671        6.5049034868       12.1295834025
  C        11.2870164112        8.9169341903       11.3063218317
  H         5.5323495249       -0.3303226376       38.2754119187
  H         4.7178199921       -1.2439401245       39.5461644230
  H         5.9017657368       -1.9734924336       38.4796221187
  H         0.9359373853       -2.4725778434       16.9096706586
  H         1.9533020117       -1.4155011380       15.9927534282
  H         0.2372324047       -1.0086033937       16.3577110961
  H        16.4992946560        0.5623669152       24.2423723688
  H        16.8048635676        2.3051365374       24.4931725618
  H        18.1856282257        1.0062597648       24.2436232856
  C        12.2918385278        7.1021236192       10.4849931793
  N        12.0735700911        8.4187283294       10.3361128039
  O        10.8092783162       10.0256938463       11.4367182872
  S        13.1564749085        6.2209311384        9.2003663791
  C        12.3318607405        9.2116504137        9.1327005190
  H        12.5472521187       10.2807996122        9.4595668085
  H        13.2650069074        8.8789542146        8.7206832510
  C        11.2204389520        8.9632629268        8.1050096141
  H        11.4339412841        9.5878514512        7.2354733560
  H        11.0791658420        7.9365527542        7.7392966016
  H        10.2274733648        9.2978657336        8.5206565428
  H         2.9920278503        3.5147282643       12.2241842816
  C         2.9803374456        2.4734431737       12.3940779279
  H         2.1823622603        2.2494070977       13.1902606661
  C         2.7066994828        1.7849728771       11.0998868923
  C         4.2628363056        2.0800240492       13.1557787471
  C         3.6712488145        2.1408484066       10.0220181015
  H         1.7715786848        1.9978483160       10.7252865015
  H         2.7048459654        0.7188604455       11.2685404484
  H         5.0620537442        1.7967519038       12.4994154767
  H         4.0092318262        1.2430259014       13.8231651115
  H         4.5377146747        2.9936839281       13.7734272676
  C         4.1357285307        0.9762072327        9.0674634594
  H         3.2019785809        2.9032102664        9.4521040151
  H         4.5153425980        2.5813321987       10.5212154015
  C         4.9832225327        1.4949988846        7.9304153673
  H         3.2920687777        0.4777177317        8.5521623998
  H         4.5920538589        0.2068845726        9.7271328441
  C         6.2221275840        2.3142961457        8.4269875691
  H         4.3631863706        2.1288871724        7.2813959647
  H         5.2812930568        0.7075573219        7.2710029036
  C         7.3821057705        1.6283177109        9.0900913392
  H         6.4896926483        2.9037484808        7.5515041990
  H         5.8665240450        3.1230861129        9.0308425944
  C         8.5668418676        2.5765322035        9.3718493064
  H         7.5912728224        0.7937504812        8.4517032413
  H         6.9263329439        1.3930959947       10.0530872366
  C         8.1859446174        3.8707073421       10.0467603320
  C         9.2217282647        3.2663172485        8.1739749720
  C         9.6152321768        2.0223027156       10.3685542346
  C         8.5948435257        4.9637190496        9.3098735793
  C         7.7207934801        4.2729534574       11.3094259431
  C         9.1776951417        4.6063373543        8.1163345746
  C         9.6676441944        2.6294650639        7.0350895858
  H         9.2647543282        1.7193802715       11.3699754069
  H        10.0451415470        1.1058679617        9.9761539798
  C        10.8639966920        2.9947987948       10.6030783007
  S         8.2935654739        6.4702762520       10.0319202415
  C         7.6710531756        5.6252025740       11.4091128016
  H         7.5711442456        3.5841979476       12.1294410561
  C         9.5850572576        5.2708414021        7.0259339020
  H         9.6633883799        1.5509691865        7.0176528866
  C        10.1239253277        3.3418960481        5.9444508295
  H        10.6522184294        4.0695858360       10.7714809193
  H        11.4440858812        2.9687852509        9.7065661291
  C        11.8120724706        2.2982763213       11.6695512121
  C         7.2651681446        6.3601023826       12.6876813816
  C        10.1613428897        4.6837138003        5.9089459767
  H         9.6107451970        6.3387097491        7.1720596200
  C        10.5931945174        2.9166063839        4.7020986076
  H        12.6466928007        3.0305360915       11.9384917215
  H        12.3799570044        1.5507542129       11.2070640420
  C        11.1846979296        2.1562026047       13.0581645573
  C         7.2737028608        7.7499545485       12.9344179064
  C         6.9415430250        5.5782219438       13.9109305710
  C        10.5677055780        5.4012145775        4.6596894602
  C        10.8388003672        4.0386026091        3.8932598205
  S        10.8037148814        1.3372460369        3.9427142953
  H        10.7325456957        3.0726569858       13.2725800815
  H        10.4343518912        1.2806259072       12.9641687645
  C        12.3040481105        1.9851060477       14.1364223474
  N         7.6228544206        8.6998325172       11.9777045088
  C         7.0111027609        8.3246040799       14.2213210312
  C         6.6621413002        6.1126078182       15.1978472745
  H         6.8016777755        4.5620279980       13.7588227296
  C        11.7883769475        6.1840387064        4.9669218214
  C         9.3612017056        6.0643088910        4.0159448332
  C        11.3129854044        3.6491444047        2.6112369859
  C        11.3753543929        2.2700993813        2.5232511939
  H        12.8880243120        2.9122969961       14.1281514354
  H        12.9882501331        1.1765550227       13.9067861869
  C        11.7468759766        2.0819964925       15.5669328910
  S         7.6801749053       10.1404266354       12.6999211456
  N         7.2222037346        9.7078090421       14.2039109282
  C         6.6810533029        7.5737839260       15.3815426316
  H         6.5516124000        5.5099792597       16.0510125463
  H        11.4872748309        7.0451432208        5.5380499828
  H        12.1012184468        6.6237685275        4.0452711398
  C        12.9777955741        5.3523305267        5.6241478236
  H         8.9921386142        6.8895372088        4.6490606352
  H         9.8152945462        6.5167837198        3.1233995201
  C         8.2036075414        5.0626464674        3.5997655682
  H        11.6751045083        4.4407670825        1.9234381900
  C        11.6157597502        1.5674502778        1.2015124094
  H        11.1139417007        3.0112277455       15.5371541469
  H        11.0902467168        1.2575224578       15.9344096695
  C        12.7017858208        2.1043627364       16.7225173026
  C         6.5070320570        8.3546540538       16.5991901001
  H        12.6462555335        4.8601798768        6.5246296128
  H        13.1859592611        4.5098153658        4.9369908491
  C        14.2733162744        6.1655350218        5.7879999007
  H         8.0882363121        4.3258280127        4.3446708057
  H         8.5146732014        4.4333140547        2.7297616762
  C         6.8519210091        5.7135471867        3.5224920301
  C        11.6860499360        0.1926191843        0.9743183564
  C        12.0468689485        2.4248741959        0.0640024372
  H        13.6840467377        2.4559128116       16.3424539931
  H        12.9115691589        1.1046399071       17.1545915259
  C        12.2397881068        2.9827595967       17.9324239184
  H         6.5682979625        9.4584636865       16.3951521463
  C         6.0916358870        8.0785963431       17.9015000490
  H        14.1423362255        7.0114067507        6.4226208116
  H        14.4587983297        6.6176396055        4.8243825363
  C        15.4529858510        5.2001937414        6.2100796721
  H         6.1545083481        5.1298733502        4.1352563162
  H         6.8456559365        6.7325906250        3.9045679054
  C         6.4258728843        5.6975785214        2.0535123872
  N        11.4447420858       -0.7676312292        1.9305197483
  C        12.0814732154       -0.3689271175       -0.2169730964
  C        12.3768657754        1.9333897330       -1.1975631447
  H        11.9729221714        3.4740703575        0.1466444130
  H        13.1514874195        3.1462993147       18.6012046730
  H        11.3819724504        2.4845337045       18.3807650753
  H        12.0026181647        3.9449137220       17.5249346257
  S         5.4910392339        6.5568314428       18.4452679138
  C         6.2144342821        9.1831792319       18.9326735661
  H        15.1397317609        4.5901575084        7.0843328767
  H        15.7939552418        4.4925506798        5.4381811518
  C        16.7224076492        5.9068449183        6.5911989143
  H         6.7380030770        4.7845000966        1.5015117434
  H         6.8858865370        6.6105823493        1.5736829383
  C         4.9373096689        5.8823061830        1.9596691484
  S        11.7149037202       -2.2268748986        1.2619709977
  N        12.0232789582       -1.7833950620       -0.2361842783
  C        12.3383967141        0.4031329280       -1.3792328135
  H        12.5949333593        2.6945936644       -1.8659944352
  C         5.5481604574        7.2688860059       20.0306279284
  N         5.8629192235        8.5876364859       20.0682456905
  O         6.6263757507       10.3374082264       18.7514278579
  H        17.2037949814        6.3663143799        5.7495250669
  H        16.3069259666        6.7480042353        7.2205269294
  C        17.8747836918        5.0721388156        7.2337416600
  H         4.7677241619        5.5883384702        0.9028566696
  H         4.3733684827        5.2299987898        2.6140561631
  C         4.3643924549        7.2245343255        2.2318629520
  C        12.5172667758       -0.3120137722       -2.5917111918
  S         5.1422892767        6.4794705619       21.4828656419
  C         5.9950746545        9.2903052367       21.3636654903
  H        17.5293939543        4.7012491932        8.1899658444
  H        18.1912104851        4.2224221810        6.5791135070
  C        19.0647824523        5.9535873016        7.6656735199
  H         4.5987091734        7.6118381028        3.1912522570
  H         3.3007748996        7.1663286985        2.2609952457
  C         4.8143816044        8.2214314521        1.1634789351
  H        12.4292050410       -1.3251189268       -2.6188216362
  C        13.1776487163        0.0702597264       -3.7012963300
  H         5.2646898805        8.9542091016       22.1777281066
  H         5.7489094421       10.3534686918       21.2706065670
  C         7.4914060537        9.1647066956       21.8657480976
  H        19.5063961837        5.5491450585        8.5822928345
  H        18.7044984429        6.9176971820        8.0145658189
  C        20.2158293494        6.0431381710        6.5813472595
  H         5.3965874723        8.9922667862        1.7992459837
  H         5.5358391722        7.8050899166        0.5024284565
  C         3.6605046310        9.0171678575        0.4816328051
  S        13.5454767283        1.6635362278       -4.0964845373
  C        13.3307058363       -0.8855845352       -4.7804865334
  H         8.1180951746        9.6305654156       21.1256662402
  H         7.7584729929        8.1381023052       21.8566119515
  H         7.7788161673        9.6596856976       22.8792687007
  H        19.7903587790        6.5759369540        5.8085162250
  H        21.0805707273        6.4763264048        7.0663584777
  H        20.4779669360        5.0333340007        6.1999106623
  H         2.8237045904        9.1682578484        1.2084262507
  H         3.9446030763       10.0012039033        0.2032505610
  H         3.2692674846        8.4849682827       -0.3882029052
  C        14.0920586588        1.0573880472       -5.6905337833
  N        13.8397126626       -0.2244187968       -5.8630494483
  O        12.9632993325       -2.0367114550       -4.7039683677
  S        14.5572696324        2.0740782740       -7.0482516148
  C        14.0931350112       -1.0557276136       -7.0271702680
  H        14.4446641524       -2.0549459128       -6.6363673833
  H        15.0040255786       -0.6945218776       -7.5267257083
  C        12.8857872520       -1.1280011626       -7.9624794237
  H        12.9165531483       -2.0667171080       -8.5752363013
  H        12.8360366191       -0.2346689918       -8.5639068521
  H        11.9397627104       -1.1781977455       -7.3621534064
