352
 i =    11500, time =     5750.000, E =       132.5850804673
  H        10.2377205271        4.1375240091       32.4786756972
  C        10.2071158582        5.2301683130       32.3872603263
  H         9.1545931738        5.5062634637       32.3194712830
  C        10.8865054423        5.7953065498       31.1067743739
  C        10.9313675219        5.7053277009       33.6381383133
  C        10.6587534708        4.9143704717       29.8486524937
  H        10.7343093151        6.8464212519       31.0842826945
  H        11.9531370293        5.6518773449       31.1611119336
  H        10.1988486408        5.5148553866       34.4374726734
  H        11.7770671456        5.0491319681       33.7104668157
  H        11.2843419893        6.7723163761       33.5111390540
  C        10.5499897055        5.8154620416       28.5248740626
  H         9.7270860538        4.3927168147       29.7642295210
  H        11.5360086433        4.2279476125       29.8324056807
  C        10.6477670024        5.0269943719       27.1679374930
  H         9.6435131771        6.3223404183       28.7590738853
  H        11.3691951540        6.4881427304       28.5714744527
  C         9.2409212938        4.5761492435       26.7882156024
  H        11.2583348821        4.0979935478       27.1467524710
  H        11.1799609943        5.7299978459       26.4740706968
  C         8.2797374602        5.6338069887       26.2780364674
  H         9.3491665979        3.7845291816       26.0746798983
  H         8.9255277252        4.1439775336       27.7422521950
  C         7.1436980836        5.0289790849       25.3678494019
  H         7.7188777584        6.0969932327       27.0408618367
  H         8.8542844841        6.3698541638       25.6883842255
  C         6.6964252145        3.6645473240       25.8639713958
  C         7.7109931998        4.2765569559       24.1763132220
  C         5.8973780402        6.0393044986       25.0615496991
  C         6.9560230474        2.5446088645       25.1153202721
  C         6.1717765621        3.3864093799       27.1706712447
  C         7.5626147582        2.9593493795       23.9778369606
  C         8.1063822015        4.9416546775       22.9949481070
  H         6.2518906186        6.7071585049       24.3095432728
  H         5.5665404709        6.6507156561       25.9092097342
  C         4.6232120562        5.3056253475       24.4754717300
  S         6.5386996107        1.1450471153       25.8775641583
  C         6.0502870456        2.0509333950       27.3114977285
  H         6.0525120596        4.1482829223       27.8538395107
  C         7.9901141636        2.3497480165       22.8234912040
  H         8.0883474956        6.0305747334       23.0546442361
  C         8.4401556485        4.3875388994       21.8086399482
  H         4.8299689849        4.8492842398       23.5147982043
  H         4.3365879548        4.5427109182       25.1531052246
  C         3.4291261626        6.2034042476       24.2668475400
  C         5.6330425802        1.4131114214       28.6233785133
  C         8.4297268384        3.0649406159       21.7143393773
  H         7.9049306520        1.2817687745       22.8732465734
  C         8.8969612168        4.8531154561       20.5653218491
  H         2.8063591217        5.6044625645       23.6853766570
  H         3.6568904033        6.9084258171       23.4655183575
  C         2.7775498645        6.5988836510       25.5164531609
  C         5.5851203826       -0.0030957765       28.8685264530
  C         5.0798657485        2.3106581887       29.6466345411
  C         8.9354415348        2.3826708685       20.4235572329
  C         9.1895554734        3.7667863546       19.7865538948
  S         9.1193505118        6.3827042941       19.8477311906
  H         1.9872406284        7.3877362440       25.3227928723
  H         3.5330172237        7.2246351718       26.1070738835
  C         2.0295197135        5.4632353718       26.3370368236
  N         5.8233929396       -0.9311027551       27.8858918764
  C         5.3595597504       -0.5292097874       30.1453487878
  C         4.7189828114        1.6943879384       30.9093896451
  H         4.9507545528        3.3629970879       29.4634765181
  C         7.7858648717        1.6307868775       19.8235834079
  C        10.1230443477        1.5287383471       20.5756511561
  C         9.7208223246        4.2532473391       18.4596298977
  C         9.6413277860        5.5901084171       18.3265503967
  H         1.4192491972        4.8600830731       25.6966767180
  H         2.7674929574        4.7630870431       26.7637907791
  C         1.2393775035        5.9265236784       27.5446287392
  S         5.7197850213       -2.4013386544       28.5904922297
  N         5.3159333469       -1.8596998768       30.0637960082
  C         4.9728595180        0.2914476799       31.2528620037
  H         4.2432391015        2.4434947981       31.5276448190
  H         7.4791351749        0.8931990184       20.5279019513
  H         8.0238412554        1.0439060702       18.9080506094
  C         6.5310340144        2.4546614743       19.4305929031
  H        10.2944646569        1.3308927511       19.4717701685
  H         9.8277210570        0.6005932017       21.1002832911
  C        11.3655014436        2.2019916228       21.1109168079
  H         9.9514873496        3.5882792029       17.6897363306
  C         9.9289996377        6.3386231850       17.0316977448
  H         0.2666966267        6.4314420139       27.1402076679
  H         1.6834356664        6.7625833235       28.0644583283
  C         0.7848878411        4.8709144653       28.5348929864
  C         4.7157402155       -0.3402255698       32.5185492955
  H         6.8050405504        3.3186216964       18.8404320462
  H         6.2722730582        2.9717070866       20.3688130649
  C         5.3760006233        1.6791792770       18.7851886948
  H        11.1567784137        2.7688981192       21.9570249018
  H        11.7515897345        2.9729378856       20.4720550860
  C        12.3408873425        1.1881449821       21.5523002167
  C        10.0505313249        7.7079972150       16.9611614376
  C        10.1461901025        5.6470440606       15.7172470521
  H        -0.2791989003        4.4725480160       28.4752439562
  H         1.4875265225        4.0137205513       28.4630081143
  C         0.7936208713        5.4306398708       29.9393769239
  H         4.9111130566       -1.4016022961       32.5295661732
  C         4.3037316677        0.1363768053       33.7336951630
  H         4.7468315606        1.1159448657       19.4494971933
  H         5.7201408781        0.9235307310       18.0816549336
  C         4.5492581795        2.6713225723       17.9385014675
  H        12.0399674186        0.7285855737       22.4425718628
  H        12.1936849734        0.5031420157       20.7203865408
  C        13.7812753551        1.6745314608       21.8013827165
  N         9.8772944396        8.6444512471       17.9712748369
  C        10.2740565010        8.3744170642       15.7312339802
  C        10.4236190598        6.2619871115       14.5705453890
  H        10.1196772341        4.5192608491       15.6290651728
  H         0.1451032264        4.9279700439       30.5978600564
  H         1.7688141646        5.7264734072       30.3330938403
  H         0.1510398593        6.3528713230       29.8773190176
  S         4.0268111585        1.7459816451       34.2489833584
  C         4.3009945445       -0.8549485671       34.8487136807
  H         4.4334017701        3.5801041314       18.4523621759
  H         4.9926049200        2.9823487210       16.9639383740
  C         3.0622068919        2.3284736847       17.6310436331
  H        14.1282360264        2.2711601959       20.8952451343
  H        14.5997273577        0.8955826315       21.8300331881
  C        14.0434751434        2.5235996117       23.0508999378
  S         9.8975337614       10.1696561403       17.3452647214
  N        10.1768101331        9.7350543471       15.8114563238
  C        10.5321302767        7.7881770568       14.5035199373
  H        10.7406600401        5.6959874484       13.6864970314
  C         3.9445445547        1.1696973212       35.9483244805
  N         4.0090807302       -0.2014225755       36.0162818747
  O         4.2608887424       -2.0926769450       34.7283350899
  H         2.8608366953        2.9730432742       16.8026199502
  H         2.4235754443        2.6598453440       18.4454153638
  C         2.7822768113        0.8074207601       17.2756457221
  H        13.3335397550        3.3475079324       23.3030145618
  H        14.0986096458        1.9481614195       23.8871325180
  C        15.3035612826        3.3434440667       22.9949820576
  C        10.7976563868        8.5559783455       13.3457531129
  S         3.7647436026        2.0638425603       37.4729882755
  C         3.8484721262       -0.9661989647       37.2514312243
  H         1.9489760277        0.9077924678       16.5604022405
  H         3.6537771132        0.4454829230       16.7496101652
  C         2.4587099581       -0.1529263748       18.4603557020
  H        15.2565997403        4.2016947670       23.6330074954
  H        15.3703669749        3.8112334162       22.0513726404
  C        16.5741459306        2.6152748401       23.4006522962
  H        10.6272755464        9.6372975392       13.4063208261
  C        11.2554670722        8.1959669418       12.0827064363
  H         3.1870789799       -0.4083523860       37.9372014535
  H         3.4025491159       -2.0008493928       37.1370208273
  C         5.2112138283       -1.1862709983       37.8919118532
  H         1.5648831340        0.3351101851       18.9760401954
  H         3.1728477532       -0.3224686815       19.2598384379
  C         2.1251367337       -1.6464840907       18.0210557629
  H        17.1608673434        3.2076756196       24.0915284424
  H        16.4400592450        1.7135294286       24.0046373542
  C        17.4966172191        2.3553087988       22.1992330225
  S        12.0336771262        6.7181947989       11.6598294974
  C        11.4181307742        9.2017302297       11.0730618042
  H         5.3323344918       -1.9787048140       38.5411263772
  H         5.9576132221       -1.1908777762       37.0594857104
  H         5.5010890541       -0.3176489702       38.4909554836
  H         1.5649312255       -2.0890074073       18.8723417804
  H         2.9947692957       -2.2624244543       17.8959897061
  H         1.6538785294       -1.6671908844       16.9923730031
  H        17.6636919096        3.3348225540       21.7037276914
  H        16.8472095755        1.7446647347       21.4950211018
  H        18.4094694571        1.8685821921       22.5788017405
  C        12.3616327179        7.4176611813       10.0924895947
  N        12.1316936877        8.7441024742       10.0178193921
  O        11.0793748608       10.3914889229       11.1284214491
  S        13.2961505081        6.6324523831        8.7562269263
  C        12.2997644624        9.6048364371        8.8126556652
  H        12.4628768473       10.6385343942        9.0634329248
  H        13.2716324708        9.4129197113        8.2522377279
  C        11.0240741831        9.5481661362        7.8688618169
  H        10.2458834423        8.9425249289        8.2544263871
  H        10.5686498813       10.5493020412        7.8585210052
  H        11.3733410460        9.3050278424        6.8387221265
  H         4.5364479176        1.6638717074       12.4707802919
  C         3.9438845311        2.5923301108       12.5667989232
  H         4.6500557702        3.4482585806       12.6083909337
  C         3.0219058970        2.7216318232       11.3399518948
  C         3.1850001459        2.4488784870       13.8840762508
  C         3.8424012170        3.0778196293       10.1069105810
  H         2.2925797984        3.4402077980       11.5366908337
  H         2.6059309319        1.7089596685       11.1268846816
  H         2.2956975770        1.8803261401       13.7326779746
  H         2.7097206968        3.3689525945       14.0830540561
  H         3.6601423793        2.0418728775       14.8708479325
  C         4.4179034454        1.8403463361        9.4535409298
  H         3.1380669292        3.5731605450        9.4284804113
  H         4.6594184010        3.7176054188       10.4385591047
  C         5.5242096748        1.9745036927        8.3817273423
  H         3.6388461078        1.2206357834        9.0515755979
  H         4.8383329398        1.1993705944       10.2160377475
  C         6.7333148052        2.7475598230        8.9324577976
  H         5.0266891575        2.4534069166        7.5680341066
  H         5.8613210381        1.0495325066        7.9536059014
  C         8.1107831756        2.1194846820        8.7969574281
  H         6.5388383806        3.6974951523        8.4372505844
  H         6.6511454618        2.8339105086       10.0302563588
  C         9.2577847410        3.1227612442        9.1126023458
  H         8.1111825673        1.6554397576        7.8177942303
  H         8.2330399508        1.2882353154        9.5239736632
  C         8.7386589286        4.3824084184        9.7951048072
  C         9.5944373678        3.8449236242        7.8804540159
  C        10.2897259451        2.4533091753        9.9083744378
  C         8.8614918590        5.5217781047        8.9881197509
  C         8.2708076040        4.7247990428       11.0987483853
  C         9.4488315743        5.2187779760        7.7979231804
  C        10.0699340023        3.2070093087        6.7462952069
  H         9.9363872232        1.9282530264       10.7979582384
  H        10.7060403245        1.8096504745        9.1696528179
  C        11.3827145894        3.4008236029       10.4726967054
  S         8.2744150051        6.9916318473        9.7018549937
  C         7.9635751543        6.1011177188       11.1640372786
  H         8.3923192741        4.0417748143       11.9037553334
  C         9.9421790173        5.8321101856        6.6889172239
  H        10.0673601247        2.1298073804        6.6918258818
  C        10.3153828927        3.8131779935        5.5586123639
  H        10.9499738000        4.1933480477       11.0901995260
  H        11.9547372750        3.9773049704        9.7080060912
  C        12.3890684804        2.8036282182       11.4842209983
  C         7.4708067795        6.8011650089       12.4024315714
  C        10.4122958983        5.1684412602        5.5811750615
  H         9.8661374254        6.9144624221        6.7134601495
  C        10.7920001527        3.4164382115        4.3505846833
  H        13.3913475421        3.3980309339       11.5349720049
  H        12.6803026482        1.7286689631       11.3306954707
  C        11.8412465987        2.7439702314       12.9720141965
  C         7.4569612573        8.2043156770       12.6203717456
  C         7.0731771966        5.9832803853       13.5446040759
  C        10.7989451042        5.8455290665        4.3347920038
  C        11.0751878212        4.4861939338        3.5851640319
  S        10.9404002143        1.8965442783        3.6106864765
  H        11.5720296733        3.7306084898       13.2514968971
  H        10.8486521918        2.2168310763       12.9375748074
  C        12.7602760414        2.2990099742       14.0939834578
  N         7.5649315308        9.1650250893       11.6572431840
  C         7.3256643380        8.7291224565       13.9210787641
  C         6.7065660013        6.5591421479       14.7809692671
  H         7.1767379521        4.9285747319       13.5108107329
  C        12.0717933598        6.6949381443        4.3650589027
  C         9.6873606535        6.7249478908        3.6190431250
  C        11.5980826884        4.1025796521        2.3359208683
  C        11.5277066470        2.7488105459        2.2122741327
  H        13.6263160768        2.9975528817       14.0139154470
  H        13.1077981417        1.2663439904       13.9717397017
  C        12.0574171784        2.5308830605       15.3866640507
  S         8.0522917235       10.5323923549       12.4092972079
  N         7.6964117512       10.0324286917       13.9156277782
  C         6.9026527646        7.9664459399       15.0200874339
  H         6.3395765458        5.8816714199       15.6044396330
  H        11.7739167366        7.4720929394        5.0984257339
  H        12.2632427396        7.2366669035        3.4596277400
  C        13.3254265154        5.8415706766        4.7466810334
  H         9.3715541933        7.6033001137        4.2182371877
  H        10.0156756791        7.1498922790        2.7296459790
  C         8.4415065875        5.9104051406        3.2047775478
  H        11.9692765487        4.9438852529        1.6471811322
  C        11.9227118011        2.0085125530        0.9545814426
  H        11.8676704566        3.6053923388       15.3632753012
  H        11.0878047144        2.0107699455       15.3184898070
  C        12.9236619716        2.1160548884       16.5398539647
  C         6.6585991406        8.6100086373       16.3174252365
  H        13.0715364038        5.1402878589        5.5071679604
  H        13.6988872697        5.2754548488        3.8693771027
  C        14.5470122360        6.7013796946        5.1243694569
  H         8.0215694814        5.3455784606        4.0584720662
  H         8.6906086276        5.1213398554        2.5173207653
  C         7.3690895710        6.8163849950        2.7371055760
  C        11.8401315820        0.5902920960        0.7051762707
  C        12.0316482840        2.7653551344       -0.3992331043
  H        13.7383981458        1.4369223018       16.2789485151
  H        12.2080015985        1.5002626682       17.1627785186
  C        13.5685335947        3.2327190276       17.3710988203
  H         6.9756610147        9.6521087099       16.3145558678
  C         6.4649958619        8.1713816353       17.6122650189
  H        14.2657047981        7.0979678248        6.0019491640
  H        14.7075157642        7.5808587968        4.5572851125
  C        15.8906715780        5.9222535688        5.3026781570
  H         7.1331431457        7.3180610398        3.6470707502
  H         7.6650792978        7.5875157743        2.0905693382
  C         6.1461528148        6.1424482357        2.1908258323
  N        11.5682963051       -0.3009801674        1.7399115141
  C        12.1471804480       -0.0733370364       -0.4799600453
  C        12.2520968142        2.0608575336       -1.5648688730
  H        11.9559995063        3.8377364828       -0.4609854413
  H        14.1309975605        3.7739695261       16.6967656295
  H        14.0793242875        2.9121697859       18.2467551144
  H        12.7331586684        3.8589803164       17.8326190080
  S         6.1388597485        6.5410555826       18.1712103181
  C         6.5794069288        9.1101818512       18.6891740373
  H        15.7644922042        5.0354207065        4.7078000043
  H        16.6777350634        6.5640193633        4.9268272689
  C        16.1175996056        5.4787778404        6.7627706257
  H         5.7697118261        5.5875139880        3.0741825502
  H         6.3978733871        5.2346612859        1.5722453803
  C         5.0115916319        6.8960734680        1.6381074954
  S        11.6028734724       -1.8001398876        1.1155308152
  N        11.9758403854       -1.4302488806       -0.3601848468
  C        12.4284795902        0.5919683627       -1.6395749417
  H        12.2020032348        2.5675247100       -2.5225686187
  C         5.9516605676        7.2023432608       19.8049574031
  N         6.1108707467        8.5678762340       19.8343302446
  O         6.8447290510       10.2947434698       18.5330993814
  H        15.8329086766        6.2541657145        7.4649036782
  H        15.5415138708        4.5542010589        6.7769701862
  C        17.6072253092        5.0010936989        6.8884718923
  H         5.0787186620        6.8913754051        0.5762800703
  H         4.1387233222        6.2792358761        1.6966389319
  C         4.7181893105        8.2723216961        2.2490799888
  C        12.6674488184       -0.1459982343       -2.8534814318
  S         5.3144537669        6.3595810431       21.1655006566
  C         6.2978950577        9.4602308238       20.9919838184
  H        17.5666251297        4.4126474454        7.8232878013
  H        17.8609167629        4.2175350718        6.2019926819
  C        18.6192326111        6.1597817234        6.7306317563
  H         5.6197272528        8.8135331464        2.1918891089
  H         4.5189666733        8.2791879517        3.3814492438
  C         3.5556078000        9.0271755137        1.6938444777
  H        12.2971440858       -1.1884508417       -2.9608889821
  C        13.2173781737        0.2484736465       -4.0181638096
  H         5.7833406966        8.9811786468       21.9207674014
  H         5.8388244880       10.4432908531       20.9693337893
  C         7.7564833280        9.5007853183       21.4240647182
  H        18.0770650180        7.0786561994        6.9607800237
  H        19.0742804548        6.3242945921        5.7736143867
  C        19.7349911251        6.0273899684        7.7753645329
  H         2.7238083428        8.4605110878        1.3752866776
  H         3.1476329092        9.7103257698        2.5111754133
  C         3.9621037119       10.0364950910        0.5803455752
  S        13.7096025582        1.8915360795       -4.4175501983
  C        13.2941848396       -0.6336829163       -5.1840414124
  H         8.2225802984        8.4729406232       21.5829932923
  H         7.7926562533       10.0714309898       22.3486868282
  H         8.3676300817       10.0544050288       20.7134590627
  H        20.2320595704        6.9603769347        8.0747372584
  H        19.3854055865        5.7104891712        8.7832758557
  H        20.6110622719        5.3640254951        7.3837560044
  H         3.2600601211       10.9005810819        0.6071062839
  H         4.9688919401       10.4415945702        0.6258771441
  H         3.7682359776        9.6412689099       -0.3901840904
  C        14.2020496446        1.2657407430       -5.9760263969
  N        13.9137491501       -0.0075717820       -6.2086091646
  O        12.9109374254       -1.8421878302       -5.1184095069
  S        14.8559540029        2.2602736898       -7.2569680720
  C        14.1560530159       -0.6664796901       -7.4720702780
  H        14.2916995774       -1.6863641128       -7.3736501338
  H        15.1670450257       -0.5926438398       -7.9016351909
  C        13.0601674992       -0.5029855001       -8.5233068905
  H        12.7371797718        0.5258114470       -8.2905527388
  H        12.2733048873       -1.2137839388       -8.4984837601
  H        13.5982751849       -0.4789837936       -9.5368300687
