352
 i =    83900, time =    41950.000, E =        98.8758063236
  H        11.8239833775        7.2249113534       32.9350170016
  C        11.6118189163        6.1151153645       32.7032514025
  H        12.5787748475        5.6248455706       32.3335678014
  C        10.5750290769        5.7694811196       31.6318792169
  C        11.3496124772        5.4768408726       34.0026669213
  C        10.9723277745        6.2713172323       30.2691672744
  H        10.4970412242        4.7347090923       31.5660697196
  H         9.5880962227        6.1550619984       31.9983836361
  H        11.7975792889        4.4636882568       33.9991067375
  H        11.8447674647        6.0258346197       34.8935395723
  H        10.2888039983        5.3138651553       34.2250444459
  C        10.2561088681        5.5075303610       29.1348830714
  H        12.0677191995        6.3792267936       30.1552564493
  H        10.8443382862        7.3519751771       30.2938447769
  C        10.6372425357        5.9981659570       27.6900755584
  H        10.5067672092        4.4375694438       29.2983940182
  H         9.1874544554        5.6090143507       29.2803641411
  C         9.7203045041        5.4324939757       26.6268321010
  H        11.6116554579        5.5749790942       27.5426148395
  H        10.6753096583        7.1200837647       27.7189030030
  C         8.4249166198        6.2528103437       26.2454340608
  H        10.4150037704        5.3927851374       25.8444000964
  H         9.4999718554        4.3613803086       26.9029361436
  C         7.3058649253        5.4664947028       25.5661392957
  H         7.9519879230        6.6579417165       27.1002492836
  H         8.6598229117        7.1092441417       25.6782615400
  C         6.9153164766        4.1964138384       26.3050980178
  C         7.7398717004        4.7247735560       24.3717796061
  C         6.0169070951        6.3745007493       25.4092158910
  C         7.0794254769        3.0595523756       25.4939402145
  C         6.6986452292        3.8103468588       27.5971735829
  C         7.5391051927        3.4227401185       24.2641670991
  C         8.3381411094        5.2456631897       23.2390157494
  H         6.0938237765        7.0637700756       24.6529034617
  H         5.9797854304        6.9588321072       26.2628341855
  C         4.7412355825        5.5853362740       25.1661837857
  S         6.6859711300        1.5225277774       26.2661101491
  C         6.4726091351        2.4436978853       27.7072059292
  H         6.6221040527        4.6812680855       28.2239022037
  C         7.8100918469        2.7210713724       23.1205973008
  H         8.5727523964        6.3519515896       23.3243699671
  C         8.5570850548        4.5701447648       22.0594491409
  H         4.9561383392        5.0109554510       24.3366700918
  H         4.4844754887        5.0034980124       25.9947253749
  C         3.5434043078        6.5012769290       24.9571711149
  C         6.0429959580        1.6981678581       28.9385764104
  C         8.3492536379        3.2461960195       21.9488577764
  H         7.6037065099        1.6342989060       23.1533438946
  C         8.9311505814        4.9095068841       20.8221401268
  H         2.8632098584        6.0719218516       24.2448745895
  H         3.7623660942        7.4996145152       24.5662731258
  C         2.7796865711        6.6191508303       26.2594773211
  C         5.9882901340        0.2708437243       29.1159978854
  C         5.6517824435        2.5010850280       30.1521771622
  C         8.7694653249        2.5300734925       20.7255775464
  C         9.1594293660        3.8058915459       19.9926438191
  S         9.2842425904        6.3685056138       20.0749317712
  H         2.0702868759        7.5068727126       26.2872730467
  H         3.5933636921        6.7541581707       26.8682520253
  C         2.0252161347        5.3545293380       26.7353057844
  N         6.5737399205       -0.5619784207       28.1994937855
  C         5.6312982959       -0.2756843257       30.3409501399
  C         5.3114304302        1.9061673200       31.3748845228
  H         5.6898784463        3.5496276637       30.0424708278
  C         7.6481375774        1.7301658809       20.0483088183
  C        10.0663804363        1.6578753351       20.9297652133
  C         9.4900035757        4.1866554272       18.6530167111
  C         9.5675575772        5.5510327344       18.5990934704
  H         1.1493377811        5.3039694733       25.9895250572
  H         2.5661844386        4.3740948913       26.5831422241
  C         1.2483112313        5.4289259389       28.0916890394
  S         6.2257438876       -2.0603308391       28.7822314712
  N         5.6910816825       -1.6314693992       30.2570148147
  C         5.2397892036        0.3929063051       31.5042197018
  H         5.1005814849        2.6486931972       32.1478380667
  H         7.2953439928        1.0036041070       20.7494620540
  H         7.9768015694        1.0535886224       19.2951700864
  C         6.4296203740        2.5127141503       19.5430358730
  H        10.2750013236        1.0833794325       20.0306792392
  H         9.9427509793        1.0102791500       21.7390498942
  C        11.4156985096        2.4111006924       21.2846023798
  H         9.6574301558        3.4408697575       17.8592877205
  C         9.8380869815        6.3579500968       17.3442529055
  H         0.5132807260        4.6658731493       28.0672089090
  H         0.6793612018        6.2937619095       28.0075054115
  C         2.1702981314        5.5042725374       29.2867563308
  C         5.1507902970       -0.2398143772       32.7759584785
  H         6.6433442337        3.6022754355       19.5429797430
  H         5.5960506431        2.2966634175       20.2260892241
  C         5.9471950013        2.3012306841       18.1344658394
  H        11.1864640595        3.0622904131       22.1588207790
  H        11.7942710826        2.9461574641       20.4475662142
  C        12.5693076388        1.4413379942       21.6815490974
  C        10.0205302040        7.7513599300       17.1771876287
  C         9.9345955654        5.6289109038       16.0510246557
  H         2.9063760729        4.6937960317       29.3579442061
  H         2.6915260446        6.5011453115       29.3940509517
  C         1.3004350016        5.3929344805       30.5638508267
  H         5.2367508233       -1.2730704949       32.6935120852
  C         4.8115057431        0.0954450667       34.0402173015
  H         6.5178194170        1.5127067629       17.5827765719
  H         6.1474312100        3.2043893215       17.5724773248
  C         4.4471425846        1.9603747153       18.1258650142
  H        12.4173280003        0.8036024014       22.6081353403
  H        12.7290904318        0.7127298111       20.9033591624
  C        14.0082276194        2.0107547172       21.6788549094
  N         9.8588002177        8.7043303434       18.1719797469
  C        10.2662794919        8.3218242895       15.9099278440
  C        10.2546048368        6.1788006473       14.8466411458
  H         9.4944504862        4.6185359482       16.0358980135
  H         0.6228304319        4.5638683645       30.4166931743
  H         1.9132236492        5.1980421277       31.4443289162
  H         0.6893587287        6.3107708411       30.7588993376
  S         4.4160996312        1.6938565043       34.6216767320
  C         4.7784655064       -0.9418046907       35.0951057097
  H         3.8604526511        2.3037954989       18.9502315380
  H         3.9452115675        2.3266288393       17.1976219010
  C         4.1806990191        0.4349175601       18.3184230983
  H        13.9264413007        2.7271238409       20.9228012650
  H        14.6902922660        1.2365796837       21.3663388500
  C        14.5236425736        2.8052248482       22.9958590102
  S         9.9791608255       10.1695625240       17.4623874159
  N        10.3398571995        9.7049141219       15.9309167682
  C        10.4940733830        7.6330665937       14.7190970501
  H        10.4688736391        5.4474176585       14.0431254005
  C         4.3549069104        0.9551889218       36.2022399583
  N         4.4857651288       -0.3236841883       36.2610007693
  O         4.9074729665       -2.1328385308       34.8555954411
  H         4.2930422692        0.2507769940       19.3619952818
  H         4.8272917666       -0.2288463765       17.7895761780
  C         2.6862665704        0.1059407592       17.8797222661
  H        13.7745640358        3.6220947531       23.2568093858
  H        14.6498712579        2.1166419380       23.8380245200
  C        15.9184335264        3.3967134168       22.7696010490
  C        10.8187624842        8.2004325962       13.4938635827
  S         4.0331214399        1.8178468154       37.6842781108
  C         4.4681598146       -1.1266365073       37.5037155819
  H         1.9913631323        0.8972051267       18.0601416260
  H         2.7531582943       -0.0145149752       16.7997696529
  C         1.8998970758       -1.0534247152       18.4592761898
  H        16.0033952945        4.3199325570       23.3490214242
  H        15.8824602837        3.7236333072       21.7592489390
  C        17.1149958304        2.5130568249       23.0555763412
  H        10.7565149494        9.2292324772       13.5132057983
  C        11.3850680664        7.7603421702       12.3263676843
  H         3.6957307202       -0.8423565343       38.2467631745
  H         4.1387608970       -2.1699826986       37.2766613859
  C         5.7288731236       -1.0934528028       38.2269813583
  H         0.8708481567       -0.6624427159       18.3182831122
  H         1.9565139623       -1.0538677767       19.5515462858
  C         2.0654959016       -2.4315005558       17.8118833567
  H        16.9819200573        1.5741008337       22.4932197678
  H        18.0367197186        2.9395238780       22.7088757271
  C        17.4107549366        2.1642399301       24.5181934087
  S        11.8187520170        6.1540848121       11.9309624617
  C        11.5976193253        8.8715409407       11.3524491726
  H         6.1217732927       -2.1478717884       38.1543973348
  H         6.5183093512       -0.4701180801       37.8105904923
  H         5.5408452824       -0.8591900644       39.3028061322
  H         1.6436953411       -2.4577778114       16.8099925979
  H         1.8088807301       -3.3111622695       18.3240213868
  H         3.0765086453       -2.6906316450       17.6012033738
  H        17.1516592556        3.0386435424       25.1149434651
  H        18.4841219891        1.9886335797       24.5298367171
  H        16.9329706537        1.2359441217       24.7898933406
  C        12.3187618167        6.8867870412       10.4676274588
  N        12.1073243439        8.2414038281       10.2738957221
  O        11.1214690530        9.9930150756       11.4734270693
  S        12.7835878634        5.8405404709        9.1568961342
  C        12.2455982500        8.9523793683        9.0144300617
  H        12.4901359617        9.9797761567        9.1410266013
  H        13.0410608758        8.5784814360        8.4998159088
  C        10.9630747891        8.9385292444        8.2005028889
  H        10.6229966013        7.8696923735        8.0564715902
  H        10.1481126273        9.4378815481        8.6549112927
  H        11.1615792862        9.3116628995        7.1437925115
  H         4.4998924628        1.4018151480       13.2297246678
  C         3.9147701239        2.3503912477       13.2020278765
  H         4.5483058127        3.2843305049       13.3595728862
  C         3.1085304879        2.4347133206       11.9116232192
  C         2.8574092481        2.3121260343       14.3043345559
  C         3.9794863746        2.5758314694       10.6124763726
  H         2.3881186236        3.2561551707       11.9390312562
  H         2.4824996007        1.6307503493       11.7550347549
  H         2.4830082789        1.3101514283       14.4655305352
  H         1.9607832871        2.9312809367       14.1296562305
  H         3.3353644856        2.7487953363       15.1693551638
  C         4.9284158370        1.3400925845       10.4276077240
  H         3.3970805729        2.6038148868        9.6854359783
  H         4.6246334933        3.4813040380       10.5607105382
  C         5.3450027852        1.1369269000        8.9054985916
  H         4.5272491272        0.3912805343       10.7339164698
  H         5.7888699585        1.4491657648       11.0751854100
  C         6.4418527838        2.1287993886        8.4789288860
  H         4.4859922057        1.2745561381        8.2559427712
  H         5.7440422317        0.1989136600        8.5645620805
  C         7.7849732363        1.4726417979        8.9694818241
  H         6.4800608465        2.2054071305        7.4525448121
  H         6.3178227907        3.0712326001        8.9458166414
  C         8.8854573265        2.4919442938        9.2428965188
  H         8.1679379428        0.8013802292        8.2583748406
  H         7.5277269415        0.8726613319        9.8910010004
  C         8.4791304966        3.8746009500        9.8827946196
  C         9.3929450953        3.1324218542        7.9731491929
  C         9.9456301397        1.8717482236       10.1544767075
  C         8.7476590385        4.8968174915        9.0153827027
  C         7.8841656581        4.2672160236       11.1040034708
  C         9.3614669944        4.4725146553        7.8449515302
  C         9.9539872250        2.5227283225        6.9037382728
  H         9.4207019723        1.3571319347       10.9588856744
  H        10.5500871110        1.1568147836        9.6022450517
  C        10.9368953684        2.8226614462       10.7671388157
  S         8.4610057881        6.3870076021        9.8328609342
  C         7.8445555374        5.6557705524       11.2263033817
  H         7.6337210157        3.5165986732       11.8221634418
  C         9.8311917833        5.0713018427        6.7351570776
  H        10.1481304603        1.4449480772        6.9443222562
  C        10.4002839493        3.0741680927        5.7416320421
  H        10.4929365164        3.5529130808       11.5717985701
  H        11.1764891795        3.4934408872       10.0468623271
  C        12.2691470629        2.1570333410       11.2221212218
  C         7.5586125161        6.3598899957       12.4990744639
  C        10.3236339160        4.4213743416        5.5790340122
  H         9.7219501113        6.1344298245        6.7351306125
  C        10.8707508571        2.5769176387        4.5200122031
  H        13.1106318812        2.8485164279       11.1311416235
  H        12.4779794662        1.3114090151       10.6077264125
  C        12.0914880521        1.6136026227       12.6397136163
  C         7.7072081981        7.7181513285       12.7510450958
  C         7.0688658886        5.5506690878       13.6665134519
  C        10.7599236049        5.0876778525        4.3186978482
  C        11.0884862649        3.6564444146        3.6941088263
  S        11.1822390876        1.0807425847        3.7592556037
  H        11.0954047135        1.1208894859       12.7424685328
  H        12.8591327999        0.7762299809       12.6935190629
  C        12.3903166642        2.5389768790       13.7890270405
  N         8.1571226166        8.6796389851       11.8335566076
  C         7.2985380462        8.3081528606       13.9461424112
  C         6.6681016952        6.1405028611       14.8560100145
  H         6.7248827098        4.5300135831       13.5893574332
  C        11.8899350540        6.0503312766        4.5057444939
  C         9.5717320618        5.7756848688        3.5970488346
  C        11.4452639045        3.3056966472        2.3870460549
  C        11.4772466010        1.9656272910        2.2839475422
  H        11.7924632173        3.4650063266       13.6852564021
  H        13.3713966911        3.0036587572       13.6102531856
  C        12.2143642288        1.8541812847       15.1705968241
  S         8.1643594763       10.2116940979       12.5513201766
  N         7.5221120938        9.6966650150       13.9753937620
  C         6.8517087781        7.5661787634       15.0389445647
  H         6.4170886598        5.4992101786       15.6843919998
  H        11.5195819260        6.8911498692        5.0374367697
  H        12.3004970368        6.4435584783        3.6081527191
  C        13.1191586171        5.5792203703        5.2532024533
  H         9.1558171866        6.5376240357        4.3379704070
  H         9.8405606397        6.3960466723        2.7117669137
  C         8.5350178324        4.7279963893        3.1803181366
  H        11.5652918805        4.0491286040        1.6215207725
  C        11.9298166278        1.2148754502        1.0680205973
  H        11.1912345962        1.4592665796       15.3455792184
  H        12.8267409952        0.9554562568       15.2384468452
  C        12.6350962863        2.7864329950       16.3125975181
  C         6.6736052508        8.3136921630       16.2633256876
  H        12.7263471246        5.2001582776        6.2108838195
  H        13.5433389962        4.8330045701        4.6492031276
  C        14.1538960036        6.7058019888        5.4585752999
  H         8.4571846895        3.8871683607        3.8971831978
  H         8.8077103300        4.4163585442        2.2019805197
  C         7.1534272668        5.3667889193        3.1764518637
  C        12.0567466478       -0.1823646524        0.9487694427
  C        11.9075033418        1.9205494969       -0.2428954954
  H        12.0970803689        3.6940000808       16.2747536186
  H        13.6160474484        3.1198368278       16.0225209495
  C        12.4877168950        2.2633622691       17.7302033170
  H         6.8063493872        9.3690004709       16.2199526699
  C         6.5602530921        7.9460576773       17.6256703004
  H        13.6779113585        7.5089558776        6.0396422404
  H        14.6024130236        6.9457614161        4.4776349240
  C        15.2608234406        6.3090725529        6.3784143182
  H         6.5726962952        4.7021561815        3.7604780046
  H         7.1558383047        6.3584196903        3.5616868062
  C         6.4922284472        5.3412024136        1.7744998484
  N        11.7244113978       -1.0995026272        1.9657376503
  C        12.2929960585       -0.8421677371       -0.2595866954
  C        12.1915017994        1.2913780008       -1.4364519263
  H        11.4637072717        2.9066567145       -0.3738255755
  H        13.3587126283        1.7505359121       17.8710173617
  H        11.5735425952        1.6613399206       17.8895299773
  H        12.4584185489        3.1520115238       18.3680983941
  S         6.1815883849        6.3819739900       18.1822809975
  C         6.4734978544        9.0358375266       18.5296094228
  H        15.6271579069        7.1921674969        6.8824196155
  H        14.9156061345        5.7259387216        7.1404558555
  C        16.4891447715        5.6662086776        5.7030919002
  H         6.5357988707        4.2743807958        1.5121896870
  H         7.0310274937        5.8803200510        1.0412619079
  C         5.0052444379        5.6037562719        1.7381438749
  S        11.8380234603       -2.5920530893        1.3193911777
  N        12.2161786340       -2.1797197993       -0.1512409392
  C        12.4690924426       -0.1707255342       -1.4856422919
  H        12.1662739878        1.8256388571       -2.3071142641
  C         5.9744279096        7.2013728880       19.7869841819
  N         6.1352944416        8.5576211257       19.7323534397
  O         6.4833270873       10.2569831840       18.2608372133
  H        16.1699528990        4.9712974789        4.9257269843
  H        17.0257209958        6.4889056141        5.1541632804
  C        17.2680284453        4.8768192969        6.6873869871
  H         4.7143531366        5.1633542056        0.8224961308
  H         4.6405581931        5.1433688972        2.6966324853
  C         4.6326572020        7.0846033593        1.8968555246
  C        12.8094025918       -0.8111936455       -2.7494652728
  S         5.4560017571        6.4511820936       21.3092136310
  C         6.0391430554        9.4365228873       20.9088025537
  H        16.7428152577        4.5985711504        7.5681329043
  H        17.5356442880        3.9608147963        6.1626940405
  C        18.4581001230        5.6870785577        7.2217302280
  H         5.2918598870        7.6156391579        2.5684072842
  H         3.6027285009        7.1621204264        2.2143621652
  C         4.7014271091        7.8074941188        0.5377620472
  H        12.5898676577       -1.8608463982       -2.7518741792
  C        13.3785935142       -0.2890617330       -3.9364264737
  H         5.2388925616        9.2473369493       21.6380561013
  H         5.9874550473       10.4651437628       20.6830500614
  C         7.4091348594        9.3219613695       21.6603917592
  H        18.9769388412        5.0924455178        7.9860165258
  H        18.0488003444        6.5079915148        7.8025117051
  C        19.4663995728        6.2214679176        6.1587061496
  H         5.6735771704        7.5152182116        0.1908541588
  H         3.9279319255        7.4589219918       -0.0934081361
  C         4.6044629973        9.3283734598        0.6891725480
  S        13.7051484337        1.3787531331       -4.3211267221
  C        13.6018576851       -1.1821234481       -5.0673110734
  H         7.6038442015        8.3421801745       22.1163184476
  H         7.3438980135       10.0875982438       22.4966946193
  H         8.1538789832        9.7563817328       21.0094562749
  H        19.3254179385        5.8445130094        5.1421913169
  H        19.3170826634        7.3582353576        6.0436859422
  H        20.5471952890        6.2280341439        6.5313148604
  H         4.6764268721        9.6238563221        1.7069214240
  H         5.2724507947        9.9940770842        0.0802413476
  H         3.6522231173        9.7854195293        0.4525286866
  C        14.3527501127        0.8058977331       -5.8366960174
  N        14.3441836998       -0.5396883315       -5.9720658004
  O        13.3424296997       -2.4112592226       -5.0494132661
  S        15.0584346976        1.8660321111       -7.0772425828
  C        14.6647046309       -1.2940819366       -7.0861995793
  H        14.9955199673       -2.2066255560       -6.6887916723
  H        15.5283314274       -0.7677277768       -7.3882447681
  C        13.4963408104       -1.3887341604       -8.1397600816
  H        12.6199831952       -0.8694621664       -7.7802029525
  H        13.2089209940       -2.3408271310       -8.4324473870
  H        13.7169654902       -0.8716762930       -9.0989524681
