352
 i =   130100, time =    65050.000, E =       100.4214442716
  H         9.8798673223        6.4927101361       29.8602086302
  C        10.6340319425        6.5498371487       30.5631399152
  H        10.8437876537        7.5706477145       30.7749382161
  C        11.9321240737        5.8907006442       29.9960956381
  C        10.1656983294        5.9416692825       31.9257035235
  C        11.6790079578        4.7495150828       28.9174642986
  H        12.5424181167        6.6273170420       29.4693170031
  H        12.6567089596        5.6438051603       30.8419742981
  H         9.9424015902        4.9065821169       31.7919557522
  H        11.0045119406        5.9628070068       32.5766666794
  H         9.4242804504        6.4842228758       32.4884301201
  C        11.7265175929        5.2566447139       27.5236650452
  H        10.6885392149        4.2600249251       29.2079263696
  H        12.4188943562        3.9578211712       28.9889481578
  C        10.4052824369        5.8587392699       27.1033950452
  H        12.5464585826        5.9705439876       27.3394558262
  H        11.9188830828        4.3825593387       26.9075202900
  C         9.3532681422        4.8711255897       26.4695746247
  H        10.5942360377        6.5516479378       26.2827723143
  H         9.7945751186        6.3535784440       27.8462255630
  C         8.2364760241        5.6725237907       25.8780676526
  H         9.9165419254        4.3024022365       25.6923282014
  H         8.9226213644        4.1309854510       27.1959695367
  C         7.0927197434        4.8683228974       25.0489579629
  H         7.6612440890        6.1365813272       26.6186321989
  H         8.6725997216        6.4477568200       25.2343488086
  C         6.8660594319        3.5651809124       25.8176483466
  C         7.4421210831        4.1098813294       23.8374425243
  C         5.8297061844        5.7053097446       24.9242789826
  C         7.2024115010        2.4193244165       25.1146635709
  C         6.3252353452        3.1873311695       27.0838653562
  C         7.5909067617        2.7667489506       23.8311973080
  C         7.8443685219        4.7189588960       22.6533725429
  H         5.9334757970        6.5207482962       24.1936954341
  H         5.7155526333        6.3663893428       25.8130652341
  C         4.4777728530        4.9566031805       24.7725706941
  S         6.9583205752        0.9087971921       25.9401690401
  C         6.3759185045        1.8673369699       27.2729152666
  H         5.9909551750        3.9527628465       27.7805237611
  C         8.0285289026        2.1127094222       22.6833972089
  H         7.7770998507        5.7989496920       22.6088509430
  C         8.3770686481        4.0763133946       21.5656179476
  H         4.3869330655        4.6503892742       23.7235085128
  H         4.3629815828        4.1097943695       25.4056525174
  C         3.1539086355        5.7576735080       24.9172764978
  C         5.9355710169        1.2395671719       28.5697575241
  C         8.3843840393        2.7363189196       21.4850131732
  H         7.9812687660        1.0770188339       22.6909265859
  C         8.8154397366        4.5801015268       20.3884450648
  H         2.3770985999        5.2267629963       24.4068400560
  H         3.3227332994        6.7014736758       24.3548855290
  C         2.7071383210        6.0236335471       26.3202907850
  C         6.0735265274       -0.1410854031       28.9389337260
  C         5.4169327534        2.1169424570       29.6747551543
  C         8.8965365686        2.1579659696       20.1744509726
  C         9.1927634522        3.5602899141       19.5185029044
  S         9.1484780956        6.1430887880       19.7518911802
  H         1.9065669139        6.7634771672       26.2102526186
  H         3.4821647874        6.7090116693       26.7734297798
  C         2.1793872856        4.7885625283       27.0764257147
  N         6.4530198823       -1.2231366263       28.0508267736
  C         5.8047950176       -0.5780089257       30.2246204537
  C         5.1419771676        1.6751765863       30.9604908297
  H         5.2504212167        3.1821427663       29.3702347931
  C         7.8120106799        1.2497903467       19.4104672087
  C        10.2877349694        1.4681258494       20.4172768742
  C         9.7529426932        4.0472138533       18.2632623527
  C         9.7399235870        5.4229015142       18.2590514160
  H         1.6362173543        4.0670020626       26.4866969600
  H         3.0594213858        4.2347106874       27.3073551641
  C         1.2482040669        4.9219762178       28.3006204354
  S         6.4457841759       -2.5509952419       28.9119575157
  N         5.9435159087       -1.9900379666       30.3292250768
  C         5.3350814344        0.2210884806       31.2992043039
  H         4.7884224914        2.3944816348       31.6824474672
  H         7.7845972665        0.3471021619       19.9968192394
  H         8.1632524051        1.1152870839       18.4240559191
  C         6.4101115784        1.9244280110       19.3931647547
  H        10.6193737546        1.0958630638       19.4285784914
  H        10.0557490831        0.7310761537       21.2230433574
  C        11.4198531482        2.3930450350       20.9509799724
  H         9.8748023694        3.3447146551       17.4588436249
  C        10.0175242117        6.1928278144       16.9857423299
  H         1.0010800130        4.0063439783       28.6475971097
  H         0.4254071713        5.4516924795       27.8902198147
  C         1.6718488315        5.8339681176       29.5010987407
  C         5.0742002598       -0.4095973628       32.5914870672
  H         6.6035496571        2.9622635861       19.4223489786
  H         5.8621990960        1.6758384233       20.2774055390
  C         5.6589172401        1.4558486039       18.1211202065
  H        11.1131247624        2.8598798280       21.8978536987
  H        11.7824316718        3.1567768636       20.1736202308
  C        12.6168523507        1.5544626801       21.2982364707
  C         9.9618977238        7.5783985905       16.7609352472
  C        10.3612460849        5.4034273546       15.7854235795
  H         2.0606277010        6.7232846391       29.1203685099
  H         0.8086409035        6.0208027091       30.1252654991
  C         2.8184630265        5.1317474460       30.2631144110
  H         5.3505610918       -1.4170672118       32.7018683145
  C         4.7272139895        0.1202854922       33.7859652727
  H         5.5860719109        0.4225007841       18.2101887863
  H         6.3066512104        1.8203297943       17.2746959814
  C         4.2881715681        2.1212467092       17.9294830949
  H        12.3394703054        0.7130773647       21.8807109512
  H        12.9111724292        1.2140522255       20.3226004348
  C        13.6984569963        2.4432817102       21.8955967768
  N         9.6955623068        8.4669879551       17.8234506675
  C        10.2681349380        8.2246475519       15.5899203511
  C        10.5684461005        6.0035516530       14.5390392184
  H        10.6330725606        4.3305476103       15.8190029267
  H         2.4509289679        4.2555778898       30.7477191088
  H         3.6653731310        4.8765323073       29.6149957617
  H         3.2347049025        5.7233974142       31.1247756861
  S         4.3565165756        1.7801878469       34.2518748220
  C         4.7178972234       -0.7975558292       34.9566439732
  H         4.2800587665        3.0846199283       18.4832535712
  H         4.1695080506        2.3271974130       16.8822923145
  C         3.0169463717        1.2729827074       18.3800908130
  H        13.5971359754        2.9672565572       22.8823576253
  H        13.7170993337        3.3823138103       21.2638824030
  C        15.0617435639        1.7374090200       21.7687992407
  S         9.6973815054        9.9452280054       17.2338453457
  N        10.1844907111        9.5913228839       15.7225636131
  C        10.5910198688        7.5312825318       14.3923067378
  H        10.7203964094        5.4288906045       13.6084826085
  C         4.2628743565        1.2173080674       35.9211904364
  N         4.3014053502       -0.1414717812       36.0919643043
  O         4.8936374270       -1.9686580826       34.8147785822
  H         2.0800676377        1.9280985888       18.2511235285
  H         3.1941221439        1.0238403504       19.3570826763
  C         2.8241346851        0.0496303069       17.4836649729
  H        15.0776979944        0.8826054256       22.4242516348
  H        15.1214053947        1.3593221065       20.7382619206
  C        16.2211611956        2.6603437242       21.9058346772
  C        10.9352155335        8.3323789969       13.2886240602
  S         3.9166411254        2.2391420669       37.3481892164
  C         4.2205859657       -0.8704014664       37.3182499317
  H         2.6419165858        0.4321639364       16.4892941207
  H         3.7435567398       -0.4851909938       17.5409041132
  C         1.6632828996       -0.8073432289       17.9796657791
  H        15.7940603527        3.5187841534       22.3823640498
  H        16.5729353966        3.1215298857       20.9592522062
  C        17.4419122050        2.0673830502       22.6356273715
  H        10.6448352215        9.3198361640       13.4060080462
  C        11.5177936673        8.0090589228       12.0692651228
  H         3.3197519253       -0.6110576749       37.8629330775
  H         4.1049756619       -1.9468109664       37.0183599151
  C         5.5066605592       -0.8369393869       38.1377640246
  H         0.7752389618       -0.3363223679       17.5193020872
  H         1.5510391590       -0.6418644059       19.0590739697
  C         1.9170878746       -2.2062959737       17.6442590307
  H        17.5855602038        1.0611462275       22.3619156662
  H        18.2631861031        2.6431954387       22.2995531400
  C        17.1861567063        2.1390596598       24.1674363220
  S        12.0668176134        6.4652684771       11.5700672672
  C        11.5060889623        9.1104727253       11.0179890398
  H         6.2732766031       -1.4282009836       37.6522254421
  H         5.9506009376        0.1624340663       38.2791214681
  H         5.3152154385       -1.2709189003       39.0959589456
  H         2.1157970970       -2.4090647148       16.6280349963
  H         1.0440339783       -2.8601754127       17.9382304471
  H         2.7846117575       -2.6546929313       18.1846832640
  H        16.7191853948        3.1306144898       24.3252014519
  H        18.1442638120        2.0919700881       24.7173121030
  H        16.6280636202        1.2536929136       24.4516870667
  C        12.3070950544        7.2488813770        9.9910886626
  N        12.0224831745        8.5773338186        9.9248855577
  O        10.9616040174       10.2356666859       11.1478914530
  S        13.1086133823        6.4742302188        8.5959122263
  C        12.0541750819        9.2732394376        8.6512352301
  H        12.1276980060       10.3290123410        8.7722346155
  H        12.9484941383        9.0730471751        7.9993771397
  C        10.7876122335        9.1829815372        7.8880742255
  H        10.9875469248        9.2618396738        6.8241473930
  H        10.2841515105        8.2496143903        8.0890126274
  H        10.1540290553        9.9964035410        8.2538653675
  H         4.5317117130        1.4835112669       12.1658759365
  C         4.0254445043        2.4704433917       12.2156776987
  H         4.7855172485        3.2563962928       12.1771865580
  C         3.0109260012        2.5233675011       11.1565245404
  C         3.3358658463        2.4981634834       13.4929317554
  C         3.6355484060        2.8405411278        9.7611186206
  H         2.2955485660        3.2754741479       11.4801290703
  H         2.4160693138        1.5936365831       11.0969724043
  H         4.0793336977        2.3077518773       14.3237259000
  H         2.6551509354        1.6521039242       13.5559018038
  H         2.7477363685        3.2928678214       13.7333990682
  C         4.5771599296        1.7433311260        9.2350613246
  H         2.8303717891        2.8954520608        9.0458526993
  H         4.0432950824        3.8323684303        9.7915603685
  C         5.3497831302        2.1876021757        7.9823657888
  H         3.8443735508        1.0240742772        8.8828635923
  H         5.1880384966        1.3458185720        9.9982936868
  C         6.7056703933        2.8308299869        8.3265347417
  H         4.8325691367        2.7742951269        7.2205893539
  H         5.7336775472        1.3945157542        7.3319899238
  C         7.7365073677        1.9098901599        8.9300511151
  H         7.0111743847        3.3293810006        7.4742756191
  H         6.4066193646        3.5627863642        9.0279589011
  C         9.0636724778        2.6549683590        9.2265102759
  H         7.8753262679        1.2476679093        8.1215929626
  H         7.5170241381        1.4086301715        9.8869759968
  C         8.7293255270        3.9434076249        9.8967819637
  C         9.4699805413        3.3985768793        7.9931014266
  C        10.2537804446        1.7742876360        9.8712210901
  C         8.9967887534        5.0999229780        9.1509581697
  C         8.1455634863        4.2321101496       11.1537070155
  C         9.4111998775        4.7023418401        7.8957859273
  C         9.8619116813        2.7824288375        6.8189266439
  H         9.9440701512        1.3354892392       10.8362632346
  H        10.5182471769        0.8979151381        9.2667700186
  C        11.4413322653        2.7376231711       10.0494051751
  S         8.5508220578        6.5624236764        9.9780265806
  C         7.9918802110        5.6118277116       11.2781008599
  H         7.7520167575        3.4657084941       11.7180617701
  C         9.6800732313        5.3438643419        6.7377386683
  H         9.9522422495        1.7547781682        6.7033732910
  C        10.2694013146        3.4378031494        5.6912936016
  H        11.2327111208        3.7842281942       10.2829563234
  H        11.9059549480        2.7827081206        9.1102581265
  C        12.5566249330        2.5297725041       11.1233494516
  C         7.4593568619        6.3399919528       12.5525264684
  C        10.1562174950        4.8004976327        5.5633682520
  H         9.6767533997        6.4497302349        6.8282788069
  C        10.6825954434        3.0835636246        4.4277478698
  H        13.3179072396        3.1729237167       10.7963631895
  H        13.0300444320        1.4909438813       11.0761514583
  C        12.1088767221        2.9531430980       12.5306188503
  C         7.4840891357        7.7327182969       12.7687081542
  C         7.0341584169        5.5687009240       13.6993862606
  C        10.6048254494        5.5416417274        4.3851507796
  C        10.8366585364        4.2032439696        3.6180054448
  S        10.7862198668        1.6140102494        3.5931563848
  H        12.9397953521        3.5139275532       12.9137001994
  H        11.2301605221        3.5236130053       12.4581029562
  C        11.8648017478        1.8078652438       13.6007133495
  N         7.8395717604        8.6961909782       11.8215445271
  C         7.1431990640        8.3333716016       13.9516861546
  C         6.7318856638        6.1570159910       14.9009282041
  H         6.7243592611        4.5361809376       13.6006342457
  C        11.9081217838        6.3194813229        4.6325638804
  C         9.4628636239        6.2876596077        3.6892561761
  C        11.1185827228        3.8671078710        2.2697202506
  C        11.1074116760        2.5259446094        2.1690245382
  H        11.9772881929        0.8537363023       13.1764236162
  H        10.8294459012        1.8500710055       13.9474385310
  C        12.8138382960        2.0124096276       14.7709441226
  S         8.0233608759       10.1284893663       12.5144181280
  N         7.4666600840        9.6951932520       13.9352649399
  C         6.9583343514        7.6260656925       15.1204961142
  H         6.3396638331        5.4694441776       15.6560514987
  H        11.7375994550        7.2197577734        5.1997216206
  H        12.1296012744        6.7203077866        3.6107267809
  C        13.0824581192        5.4638621420        5.1606523836
  H         9.0049001139        6.9919216661        4.4155985428
  H         9.9058343846        6.8904660479        2.9129108522
  C         8.3003253956        5.4544951714        2.9996978637
  H        11.3286270726        4.5992406853        1.5142965866
  C        11.3996391812        1.7426296652        0.8550964701
  H        13.8603024131        1.8526283689       14.5180527868
  H        12.6690457956        3.0006569790       15.1776305038
  C        12.4318451500        0.9587431317       15.7772769703
  C         6.8433134919        8.3225196182       16.3602955887
  H        12.8373806830        4.9219842485        6.0989331462
  H        13.2495680542        4.7131950911        4.4033929881
  C        14.4278841968        6.2368432158        5.3099714555
  H         7.8976829447        4.7060914580        3.5961174068
  H         8.5073857875        4.9736446496        2.0354866989
  C         7.0316753921        6.3725478852        2.8176173044
  C        11.5301238709        0.2904289728        0.8166776493
  C        11.8194448697        2.4760891462       -0.3642830381
  H        13.0467153894        0.0472780972       15.6832173656
  H        11.3862178539        0.6458671988       15.7930982076
  C        12.6029738193        1.5342678610       17.1568317136
  H         7.1631954658        9.3240629658       16.3244472330
  C         6.4801946406        7.9098665620       17.5950028825
  H        14.3645278689        7.1305545696        5.9503188978
  H        14.7034480787        6.6656789000        4.2717198523
  C        15.5450292346        5.2941620265        5.9050685880
  H         6.8509351366        6.9536831744        3.6913551162
  H         7.3309691822        7.1161480689        2.0584008994
  C         5.8157893542        5.5770099436        2.1627082913
  N        11.1455920652       -0.6386717230        1.7607144084
  C        11.9481967455       -0.3455707448       -0.2977115659
  C        12.2103395339        1.8200645464       -1.5106079076
  H        11.8316032081        3.5678627677       -0.3864788567
  H        13.5654113836        1.2007862893       17.4848801024
  H        12.0094826597        1.0014700759       17.9157515093
  H        12.3980601291        2.6494511962       17.2164927482
  S         6.0806811947        6.2901140690       18.1207943021
  C         6.5641952419        8.8942713406       18.7002513539
  H        15.2618835267        5.0624110266        6.9158759382
  H        15.6753079138        4.3605153327        5.3494426509
  C        16.8970312523        5.9970529633        5.9945340323
  H         5.2767858765        5.1414582831        2.9817176647
  H         6.1564535272        4.7215407870        1.5670168883
  C         4.8274925335        6.4295045824        1.3160046008
  S        11.3643949237       -2.1492301097        1.1905256256
  N        12.1784112873       -1.7022007733       -0.1415516686
  C        12.2811430414        0.3394210246       -1.5086006278
  H        12.4160085069        2.3997235603       -2.4348287983
  C         5.8395685153        6.9792924006       19.7025868519
  N         6.1108797296        8.2956038072       19.8080925452
  O         7.0252000740       10.0325971940       18.5808941649
  H        17.1747012502        6.1716395827        4.9280160378
  H        16.8114774072        7.0278263373        6.3294321957
  C        17.9290514418        5.1190225652        6.8129508476
  H         5.4528836039        6.7945683654        0.4700090762
  H         4.0713828136        5.8256451283        0.8614375398
  C         4.3425431502        7.5966772710        2.2181280640
  C        12.6887339983       -0.3844230428       -2.6169492181
  S         5.3163340875        6.2198649572       21.1685724392
  C         6.0810401717        9.0631722454       21.0628131126
  H        17.4735942930        5.1930946362        7.7217141592
  H        18.0472095758        4.0874353863        6.4206993548
  C        19.3064145095        5.7910448661        7.0262328133
  H         5.1344418110        8.2951271352        2.4270717191
  H         4.1289789545        7.2704948469        3.2531373820
  C         3.1126381609        8.1290383183        1.5673988923
  H        12.6042169589       -1.4469444375       -2.5511684254
  C        13.2427428459       -0.0648842007       -3.8394727474
  H         5.2110388423        8.8775805580       21.6307851890
  H         5.9833516205       10.1492759002       20.8115056209
  C         7.3358240395        8.8474306586       21.9286299041
  H        19.9577195547        5.3901909546        7.7892856078
  H        19.1576055163        6.8136685435        7.3395380008
  C        20.1298512158        5.9226636049        5.7522977408
  H         3.0581272762        7.7685367968        0.4926826644
  H         2.2134307858        7.7908705596        2.0003788069
  C         3.1016585819        9.6883616732        1.5389294756
  S        13.8361638370        1.5043583425       -4.3157983587
  C        13.3663057598       -1.1915605858       -4.8315660576
  H         7.3547502116        9.6634310275       22.7036137802
  H         8.1374921608        8.9734025106       21.2315304019
  H         7.4926234625        7.8415236876       22.3943110123
  H        20.0838898311        4.9704017930        5.0983354473
  H        19.6960228826        6.7579862988        5.2021183537
  H        21.1683242154        6.2406678516        5.8944311668
  H         3.0650084016       10.0676945628        2.6302352968
  H         3.9976708937       10.1405099210        1.0612398943
  H         2.2183660911       10.1036464676        1.0500576277
  C        14.1148920401        0.6796348749       -5.8445860203
  N        13.9012360092       -0.6270376023       -5.9562283696
  O        12.9207004451       -2.3493352190       -4.7189841276
  S        14.5612089223        1.5660592461       -7.2766713524
  C        13.9410082235       -1.3631308486       -7.2198952128
  H        13.9948638473       -2.5007694891       -6.9729548916
  H        14.8855888603       -1.0831509769       -7.7303523963
  C        12.7348849695       -1.2067295035       -8.1553119923
  H        11.8167546929       -0.8199223619       -7.8088545657
  H        12.4936202767       -2.1656603240       -8.5666472550
  H        13.0263040870       -0.6075982436       -8.9552886660
