352
 i =    84900, time =    42450.000, E =        98.4655819492
  H        12.3965035681        7.2100154515       33.0526334465
  C        12.2840708687        6.1324535685       32.8162560042
  H        13.2152130688        5.8812256696       32.3333940817
  C        11.1406094982        5.9227512066       31.7678082788
  C        12.0792735487        5.3725073439       34.1165428499
  C        11.5714316127        6.1145625341       30.3513143182
  H        10.6639827719        5.0137373303       31.8841194621
  H        10.3921590815        6.6505550832       32.0704185217
  H        11.4805045728        5.9227959976       34.7849086002
  H        11.6396134275        4.3527824420       33.9919472842
  H        12.9890643626        5.2116281688       34.7058366914
  C        10.5081679230        5.6793031985       29.3246176872
  H        12.5446113386        5.6829161959       30.2402793463
  H        11.5793735746        7.1955466353       30.2765619839
  C        11.1475105223        5.6103437819       27.9240021019
  H        10.0098131212        4.6804537843       29.6160627395
  H         9.7528124178        6.4210577655       29.5645774096
  C        10.2145926815        5.1507263681       26.8662950737
  H        12.0574905336        5.0831020012       27.9030453371
  H        11.4125597347        6.6353996705       27.6341206568
  C         8.9106806324        5.9921205544       26.6371320482
  H        10.8984237380        5.2460664503       26.0183128589
  H        10.0256864577        4.0708495728       26.9463160021
  C         7.7858522583        5.2650766779       25.8172590445
  H         8.5565071691        6.1886799517       27.6671661149
  H         9.0962394777        6.8617025447       26.0863069647
  C         7.3268113559        4.0240458787       26.5557729694
  C         8.2117781998        4.4760226914       24.6519925262
  C         6.5831114428        6.1730935677       25.7865529160
  C         7.5201061866        2.8323096192       25.8035349175
  C         6.7371945116        3.7406170696       27.7918925812
  C         8.0610647859        3.1279028289       24.5839804875
  C         8.6709513681        5.0148830656       23.4274782116
  H         6.8004596194        6.9946025458       25.1065034768
  H         6.5811253968        6.4918902598       26.8056339082
  C         5.2108801335        5.4727839137       25.4164343746
  S         7.0150211386        1.4067485026       26.6149060554
  C         6.5473507721        2.3870956105       27.9618171975
  H         6.6236944831        4.4901890303       28.5343522718
  C         8.4400787329        2.4592662908       23.4534347838
  H         8.6103695120        6.0723763004       23.3497953847
  C         9.0004584141        4.3635787960       22.2924362896
  H         5.2630081416        5.2875892330       24.4116521443
  H         4.9771257120        4.5624359684       25.9865967624
  C         3.9816764240        6.3533828128       25.4834317710
  C         6.1198967366        1.6378015368       29.2215145119
  C         8.9508038861        3.0206163349       22.2683626538
  H         8.2948518548        1.3702340716       23.3678496741
  C         9.2986522932        4.6842602263       21.0134529791
  H         3.2269193374        5.9064742219       24.8366806120
  H         4.0855729693        7.3111923143       24.9767353247
  C         3.5611888046        6.4335168996       26.9796731167
  C         5.9782904363        0.2049522263       29.3750765284
  C         5.7355611591        2.3995609024       30.3637243738
  C         9.3334789959        2.2603334200       21.0484500576
  C         9.5371928013        3.5230823760       20.2933520558
  S         9.3803332105        6.1413956821       20.1359997448
  H         3.0014834389        7.4443522459       27.0834527626
  H         4.4371805267        6.4601694823       27.6004191996
  C         2.5984335843        5.2579655317       27.4471839814
  N         6.2231049125       -0.8143586746       28.4000207807
  C         5.7473985495       -0.3614810990       30.6227312079
  C         5.4835988764        1.8303100357       31.5803891406
  H         5.7194224585        3.4529537121       30.2558933114
  C         8.1083364793        1.3809481425       20.5111359117
  C        10.5872173412        1.5085786334       21.2389780670
  C         9.7516422392        3.8471806458       18.9615716764
  C         9.8624056074        5.1905751735       18.7723744102
  H         1.9550290244        4.9781314878       26.5273678359
  H         3.2830783974        4.4213823670       27.5741736610
  C         1.8985852854        5.5712352566       28.7089815831
  S         6.2840075880       -2.2064555301       29.1855532065
  N         5.7120979813       -1.7629104455       30.6159643032
  C         5.5169354828        0.3712207894       31.7931365990
  H         5.3820749318        2.4908328141       32.3937711168
  H         8.0315326013        0.4463564887       21.0748560653
  H         8.3233663287        1.0030641915       19.5031158886
  C         6.7000987647        2.1165275953       20.4500792933
  H        10.6200297196        0.7692473102       20.5028692869
  H        10.5061837426        1.0653315701       22.1824872906
  C        11.8803437858        2.3145943617       21.2111276081
  H         9.9535307569        3.1141226857       18.2332087307
  C        10.1231686113        5.8799591732       17.4795709234
  H         1.0744044635        4.9083486706       28.8379555891
  H         1.5060948573        6.5247788259       28.6819740162
  C         2.7198560826        5.5410513830       29.9774456332
  C         5.2262744392       -0.3583446142       33.0215287205
  H         6.7241677774        3.2052748052       20.7222010768
  H         6.1176223958        1.5524312979       21.1982483579
  C         5.9959496619        2.2319753168       19.0278432128
  H        11.9097423690        3.2447268408       21.8567181371
  H        12.0890897059        2.7678123337       20.2474950137
  C        12.9706367967        1.3268883624       21.5479378945
  C        10.1069314707        7.2611347493       17.3027554290
  C        10.2788816819        5.1057027269       16.2800999847
  H         3.4925566148        4.7763377951       29.9462397765
  H         3.3119403812        6.5056626860       29.9890617647
  C         1.8537605602        5.4976420931       31.1556371947
  H         5.2029614936       -1.4290549486       32.9878579000
  C         4.8603713722        0.0416310422       34.2736702411
  H         6.1991870611        1.3474086229       18.4510385672
  H         6.4724934083        3.0757013549       18.6235720999
  C         4.4722914407        2.2419074310       18.9919809899
  H        12.7681620216        0.9887628599       22.5835580853
  H        12.7952635258        0.5258635814       20.8146936182
  C        14.3664705533        1.8452617943       21.3612444567
  N         9.7816722562        8.2102210597       18.2866333820
  C        10.4124018363        7.8500792010       16.1192064836
  C        10.4306215685        5.7201849963       15.0070316856
  H        10.3538081027        4.0101778469       16.2728184227
  H         1.1426956084        4.6540834288       31.0486210713
  H         2.3005243852        5.4723321927       32.1777568108
  H         1.2342357588        6.4461099978       31.2836092847
  S         4.5233099561        1.6825636926       34.8155311298
  C         4.8889033422       -0.9192177061       35.3473938295
  H         4.0953523748        2.9160114381       19.7112269597
  H         4.1451768915        2.6653696006       18.0245570822
  C         3.7987448884        0.9179913727       19.0790561164
  H        14.5276549586        2.3355404105       20.4139266038
  H        14.7776464779        0.9056775630       21.1823108840
  C        15.0588598933        2.4077153634       22.5737690235
  S         9.7442780275        9.6601289273       17.5737187173
  N        10.3853667268        9.2587057137       16.1466016679
  C        10.6302659332        7.1980044882       14.8910119316
  H        10.4827640599        5.0740524720       14.1893951172
  C         4.2684567416        0.9251671242       36.4338357362
  N         4.4823085146       -0.3562021464       36.5052386335
  O         5.2772213754       -2.1127363319       35.1990230619
  H         3.8374465154        0.5799111979       20.0962396036
  H         4.3454717823        0.1331513408       18.5622064644
  C         2.3856829733        0.9417657936       18.5300166439
  H        14.5826436046        3.3596180784       22.9793346396
  H        15.0890128124        1.6966219028       23.3735064832
  C        16.4665844859        2.8584599282       22.2369855451
  C        10.8600564553        7.9512696358       13.7140480957
  S         3.7180663396        1.7469294599       37.8385034152
  C         4.3519343531       -1.1680273776       37.7240313312
  H         1.8950888974        1.7679744658       18.9920388156
  H         2.4945600128        1.3582156074       17.5191813878
  C         1.6060206011       -0.3832760198       18.6246974014
  H        16.5471129129        3.8584977188       22.6568339851
  H        16.6114577666        2.8741127527       21.1476639688
  C        17.5134106328        1.9372189169       22.8622729671
  H        10.6379508703        9.0316512149       13.7577634507
  C        11.3026166420        7.5358287400       12.4517238831
  H         3.5635761191       -0.6868596199       38.2294911781
  H         4.0509225887       -2.2132931741       37.5080417412
  C         5.6422313346       -1.0453449700       38.4686003772
  H         0.5454370551       -0.2575080072       18.2725080226
  H         1.6497301997       -0.7351591977       19.6427792899
  C         1.9725028187       -1.5169091792       17.7448422661
  H        17.3152525107        0.9702183456       22.4048375253
  H        18.4824532871        2.1994314112       22.5189215717
  C        17.3510796127        1.9021402578       24.4061941156
  S        11.8460669063        5.9657167119       12.0479203927
  C        11.2653799614        8.5052002116       11.3511176359
  H         6.3821701245       -1.7511032883       38.0244050496
  H         6.0777590015       -0.0610694057       38.3450300549
  H         5.5985765826       -1.2927466260       39.4933778230
  H         2.9349937305       -1.4012079174       17.1610183340
  H         1.1962122796       -1.7699828865       17.0078113165
  H         2.0343064403       -2.4776707807       18.3441043152
  H        16.8301464270        2.8314139053       24.6816917174
  H        18.3177665944        1.6687288930       24.8367649116
  H        16.7232240394        1.0318133061       24.6768624680
  C        12.2068841016        6.7027756087       10.4342993266
  N        11.8587994825        8.0186126426       10.2764689455
  O        10.9633438086        9.6981956461       11.4953619071
  S        12.8561029202        5.8816578955        9.0409408970
  C        12.0901422709        8.7455400323        9.0034608193
  H        12.2254349673        9.8226167917        9.2056269085
  H        13.0169888162        8.3535660935        8.6537414095
  C        11.0645416342        8.5704794549        7.9237823594
  H        10.5034135223        9.5067118623        7.7312655527
  H        11.5813832650        8.3483682948        7.0690847080
  H        10.3878166657        7.7700853711        8.0941135992
  H         4.4283818229        1.1616072556       12.7702936483
  C         3.8695970316        2.0537503531       12.9099494635
  H         4.6263236944        2.8536714959       13.0443940112
  C         2.9395810113        2.1392070006       11.6461530680
  C         3.0108053028        1.9552639611       14.1413256054
  C         3.7727629486        2.4576524753       10.4293194086
  H         2.1897698436        2.8909791661       11.6819966808
  H         2.3708039560        1.2438363011       11.6432520679
  H         2.1253524263        1.3489473265       13.9064463893
  H         2.7828823401        2.9741172803       14.4841975105
  H         3.5841068224        1.4497691131       14.8997585052
  C         4.4818178084        1.1287906820       10.0197551226
  H         3.1215832349        2.8352664738        9.6346367264
  H         4.4557791572        3.2596300884       10.7637230634
  C         5.1893116178        1.3069887667        8.6075948123
  H         3.6647981811        0.4305427941        9.9322017679
  H         5.2126089288        0.7080132488       10.6779320857
  C         6.3906793043        2.2468975680        8.5787725555
  H         4.4952468624        1.7230826589        7.9101697506
  H         5.2925425511        0.3654120100        8.2006600277
  C         7.7005445540        1.5795256168        8.9595158426
  H         6.4622077880        2.6661146681        7.5833665970
  H         6.1125029624        3.1074336353        9.2492682906
  C         8.9439601205        2.4635703811        9.2520409598
  H         7.9540556005        1.0636625191        8.0438393007
  H         7.6158749833        0.7147201178        9.6053766287
  C         8.5201585969        3.7912247828        9.9415810449
  C         9.3319184189        3.2032188883        8.0351179410
  C        10.1901176831        1.7760306636        9.8732518123
  C         8.7077715703        4.8902655915        9.1640261754
  C         7.8496854288        4.1176856842       11.1449095376
  C         9.2033690029        4.5248350431        7.9299806880
  C         9.8000274067        2.5930706008        6.8316006659
  H         9.7937944002        0.9079560604       10.3215088778
  H        10.8350691388        1.4767410405        9.0219843586
  C        11.0659697847        2.6239009754       10.8120506333
  S         8.2139743108        6.3410232661        9.9199009348
  C         7.8123604837        5.4436078796       11.3456955765
  H         7.6958789729        3.3826431768       11.9209854347
  C         9.5640315966        5.1571829786        6.7950655643
  H         9.8427497907        1.5720228123        6.7069416585
  C        10.1115598299        3.2143254329        5.6954644368
  H        10.5487241015        3.1348279561       11.6690508975
  H        11.3730419184        3.3887326689       10.1542065721
  C        12.2471966141        1.9736163731       11.4991449774
  C         7.5573342576        6.0664144424       12.7104421835
  C        10.0717190043        4.5510727401        5.6125394116
  H         9.4436155962        6.2284680632        6.8349001551
  C        10.5042755972        2.7889241595        4.4334944979
  H        12.9802523093        2.7555156926       11.6447700860
  H        12.5290266917        1.2092858781       10.8264161665
  C        11.9470370376        1.2722383563       12.8224636671
  C         7.6082818756        7.4917440949       12.9571023520
  C         7.2698288044        5.2524009388       13.8945049922
  C        10.3860430986        5.2220344599        4.3539284426
  C        10.6648160629        3.8947700158        3.6248237676
  S        10.8829417083        1.2535989826        3.6491302528
  H        10.9125527550        0.8990037941       12.7581390911
  H        12.6927089807        0.4981311402       12.8977497913
  C        11.9337327732        2.2429153285       13.9638743166
  N         7.7776395017        8.4700797911       12.0375857715
  C         7.4273891665        8.0330421584       14.2296324094
  C         6.9962108271        5.8025988000       15.1366525809
  H         7.0552255530        4.2132048809       13.7354115523
  C        11.6708919084        6.0840207102        4.2979628406
  C         9.1867418401        5.9208516537        3.6922883029
  C        10.9292430994        3.4860138304        2.2913050993
  C        11.1213130982        2.1299075647        2.1998000960
  H        11.1215632065        2.9050341937       13.7607704971
  H        12.7787551360        2.9665065543       13.8632210838
  C        11.8095379585        1.5261032142       15.2713034601
  S         7.9692381366        9.8643322990       12.7295412501
  N         7.5943490653        9.3753634839       14.2076605007
  C         7.0572777376        7.2822093796       15.3958444389
  H         6.9221794508        5.1990075996       16.0346065073
  H        11.5620854058        6.9726632842        4.8432264262
  H        11.7887649278        6.3389425027        3.2844217279
  C        12.9493124155        5.3483258745        4.7165000367
  H         8.7560210244        6.7639365582        4.3957509033
  H         9.4918003369        6.3674531618        2.7154540701
  C         8.0452313209        4.9377127722        3.3285395079
  H        11.0344226230        4.1661132998        1.4725438732
  C        11.4179485298        1.3843668444        0.9067521573
  H        10.8774123800        1.8255628139       15.7157846999
  H        11.8535393673        0.4803038508       15.1221756112
  C        12.9647306182        2.0462992598       16.1614261415
  C         6.7805523259        8.0107673870       16.6125226938
  H        12.6969608275        4.7157298171        5.5486365751
  H        13.2145654330        4.6694528361        3.9668459917
  C        14.1026626963        6.2142071629        5.1600787556
  H         7.8394666114        4.2733967565        4.1963596740
  H         8.4143088361        4.2718118382        2.5807471759
  C         6.6388210045        5.4801239117        2.8842429276
  C        11.5772544865       -0.0402212879        0.7255899661
  C        11.8850481827        2.1506487972       -0.2256560520
  H        12.9786739849        3.0700936048       16.1594054971
  H        13.9189432604        1.7578433691       15.7577491043
  C        12.7591304468        1.4010048233       17.5150487370
  H         6.6364011073        9.0564526735       16.5025771645
  C         6.5531641275        7.6391176602       17.9294861212
  H        13.7473515515        7.0923500241        5.6566903978
  H        14.6693599465        6.6150655826        4.2883848772
  C        15.0616953786        5.4529487934        6.1026222191
  H         5.9340853925        4.7505652189        3.2378294284
  H         6.3130095722        6.3599250523        3.4316199973
  C         6.4140211642        5.8092323550        1.3466679741
  N        11.3634753047       -0.9750153517        1.6896845551
  C        12.0072686630       -0.6556539922       -0.4436320108
  C        12.2076825336        1.5415545134       -1.4168922916
  H        11.8180521002        3.2113655291       -0.1912004068
  H        11.6879985744        1.2644374834       17.6897329093
  H        13.2164648444        2.0511255324       18.3769442107
  H        13.2351195504        0.3633125187       17.6250017825
  S         6.5065535273        5.9972494966       18.4788137442
  C         6.4747279066        8.6932353688       19.0262590348
  H        14.5521642855        5.5080086339        7.1181334053
  H        14.9567347232        4.4418662597        5.9578916602
  C        16.5439470229        5.6598059348        5.9816709145
  H         6.9498982738        5.0926917412        0.6681731395
  H         6.8285428937        6.7626330450        1.0847243736
  C         4.9421132986        5.9545562885        1.2186767545
  S        11.5769675014       -2.4640581124        1.0313144344
  N        12.0862224817       -2.0016098434       -0.4132988105
  C        12.2164706056        0.0820221276       -1.6166155081
  H        12.3634861193        2.2254089313       -2.2970034020
  C         6.2752986344        6.7051247710       20.0545647598
  N         6.1125213881        8.0322612734       20.1711939722
  O         6.6544698851        9.8677885435       18.7426525124
  H        16.8380233321        5.6493261357        4.9237609768
  H        16.7035067190        6.7387121148        6.2607635198
  C        17.2889526955        4.7107336199        6.8993782710
  H         4.6356971855        5.6299828219        0.3214205872
  H         4.4679907557        5.2842553067        1.9328865235
  C         4.5481499989        7.3993577936        1.4098983184
  C        12.5989513309       -0.6548989302       -2.7865809788
  S         5.7576643348        5.8094166163       21.4904058732
  C         6.2151895030        8.8246822678       21.3426383031
  H        16.7545451878        4.3919906342        7.7255490106
  H        17.4503023998        3.8168993598        6.3279886084
  C        18.5986821991        5.3883036225        7.3456711252
  H         5.0368942657        7.9259745463        2.1506082642
  H         3.6154642519        7.4718082712        1.8752123244
  C         4.5512316671        8.1244521674        0.0497313930
  H        12.5231097782       -1.7335103521       -2.7927938838
  C        13.1905219843       -0.2646331264       -3.9546333455
  H         5.5514762588        8.3973040645       22.1464577756
  H         5.6298803626        9.7395759888       21.1441029376
  C         7.6382303636        9.0742790987       21.8351684437
  H        18.7936845774        4.9622893760        8.3494654772
  H        18.3498043153        6.3910067749        7.6458078999
  C        19.7531542771        5.3450687224        6.3184187434
  H         5.5991167518        8.2406033346       -0.2785370633
  H         3.9993080956        7.5954158193       -0.7065410463
  C         3.9978481187        9.5316933438        0.0534161558
  S        13.7059817160        1.3760788369       -4.3972748729
  C        13.4347859509       -1.3584115643       -4.9201710235
  H         7.9025229629        8.3933327261       22.6727339094
  H         7.6888091852       10.0516582550       22.2921494935
  H         8.3244031270        8.8629860624       21.0606123523
  H        19.5604200649        4.8109024782        5.4043989253
  H        20.0438071132        6.3380348461        5.9661458745
  H        20.7241510758        5.0076752394        6.6917806072
  H         4.5377572654        9.9505112808        0.8631512668
  H         4.2424262073       10.0884233373       -0.8695674818
  H         2.9440593767        9.6908064076        0.2090208034
  C        14.3859739708        0.5472702683       -5.8324115034
  N        14.2300622322       -0.7875499832       -5.8191401944
  O        13.0298434986       -2.5122087020       -4.9542350337
  S        15.1698945703        1.3372389629       -7.1797950024
  C        14.6515656030       -1.5021466458       -7.0896780023
  H        14.7626365505       -2.5376384739       -6.7729001335
  H        15.6119487588       -1.2504317021       -7.6035768545
  C        13.4717319226       -1.3363891044       -8.0093817398
  H        12.5598988072       -0.7544863717       -7.6660785496
  H        13.1281304329       -2.3609123787       -8.1870127791
  H        13.8995094935       -1.0347442204       -8.9943986946
