352
 i =    84800, time =    42400.000, E =        98.5525178762
  H        12.0469929118        7.1072955963       33.0978011110
  C        12.0881177488        6.0717408385       32.7794296526
  H        13.0585236062        5.9876635326       32.2281419085
  C        10.9676258414        5.8102114704       31.8124275728
  C        12.0828060375        5.2158822728       34.0183105477
  C        11.3982428016        6.3343447508       30.4275041977
  H        10.7277802017        4.7287465029       31.7414842947
  H        10.0639369463        6.3361788320       32.0458780108
  H        11.1746548576        5.5289361072       34.6365701563
  H        11.9659654647        4.1941837208       33.7205234166
  H        12.9666290904        5.3010705045       34.6706608380
  C        10.4856105872        5.8265323708       29.3115128743
  H        12.4466809331        5.9753576431       30.2945873943
  H        11.3636305265        7.4364277918       30.5161539684
  C        11.0307781556        5.9088523150       27.8710854125
  H        10.0573899833        4.9142817653       29.5382054247
  H         9.6837330113        6.5803574803       29.3400590270
  C        10.0841366162        5.1730776155       26.8628926663
  H        12.1291742766        5.5169214484       27.9059041078
  H        11.1166849527        6.9662269899       27.5517093322
  C         8.9412026522        6.0958987061       26.5772210773
  H        10.5920086590        5.0447549648       25.8976577947
  H         9.8231901326        4.1626115617       27.1997725929
  C         7.7203357133        5.3217396594       25.8679800143
  H         8.4535290872        6.5366388437       27.4140812702
  H         9.3431067278        6.8878695321       25.8898885082
  C         7.2628490562        4.0087246586       26.5747081509
  C         8.1524235987        4.5458093250       24.6869147775
  C         6.5092209595        6.2987638100       25.5462296824
  C         7.5355044743        2.8638735574       25.8544382547
  C         6.6865809536        3.6525111278       27.8382482016
  C         8.0711576422        3.2063285460       24.6310893863
  C         8.4941697486        5.0408287806       23.4452781765
  H         6.7405359239        6.9383860491       24.7194378766
  H         6.4158689473        6.9595395902       26.4069731348
  C         5.1863964341        5.6500021273       25.2194095842
  S         7.0475875932        1.3455243688       26.5041615169
  C         6.5300970233        2.2877133195       27.9119894462
  H         6.4039053279        4.3485504074       28.5848955575
  C         8.3826220281        2.5283588644       23.4819836756
  H         8.5766718489        6.0813705775       23.4395265119
  C         8.8366488445        4.3435512892       22.2950103553
  H         5.1639917408        5.6108910823       24.0855303178
  H         5.0877266871        4.6708819489       25.6241634384
  C         4.0359807084        6.5235031437       25.6553567796
  C         6.0648208709        1.6210694821       29.1697041617
  C         8.8000008736        2.9943575860       22.2437112720
  H         8.3305694534        1.4807627434       23.5430443793
  C         9.2127063428        4.6574232189       20.9968961311
  H         3.2000279771        6.3214626960       24.9937019526
  H         4.2351949471        7.5615165311       25.4238518211
  C         3.5452489509        6.4948523837       27.0516626477
  C         5.9672657148        0.2622964140       29.4024355415
  C         5.7945422509        2.4474799988       30.4030596915
  C         9.1588764391        2.2090101622       20.9738485518
  C         9.4556892545        3.5288191605       20.2530350388
  S         9.4179910674        6.0844862224       20.1353423846
  H         3.1242900164        7.4299339005       27.2099789335
  H         4.5034108746        6.4443264662       27.6104931637
  C         2.5208459100        5.3721317183       27.2532989696
  N         6.3562571680       -0.7091333750       28.4704621233
  C         5.6820053315       -0.3131906801       30.6331846544
  C         5.4125371185        1.8887576168       31.6047103208
  H         6.0235021676        3.5016857364       30.3694007239
  C         8.1249759195        1.2845097032       20.2899805431
  C        10.5364548593        1.4295477040       21.1066065282
  C         9.7387909981        3.8786666254       18.8794037026
  C         9.7910417272        5.2213946694       18.7172501074
  H         1.8158572849        5.3603223381       26.5004400835
  H         3.0922810393        4.4535816794       27.1380722868
  C         1.7503428229        5.5719532172       28.5774328555
  S         6.1908427261       -2.1368298181       29.1944892176
  N         5.8817643318       -1.6822872047       30.6926954545
  C         5.4069173991        0.4435764570       31.8035551794
  H         5.2240847388        2.6776069347       32.3433194134
  H         8.0959884058        0.2827505172       20.7565851643
  H         8.5341591301        1.1121707712       19.2737058627
  C         6.7359666543        1.8551340999       20.2804769296
  H        10.6695714625        0.8746111534       20.1543853979
  H        10.4937612821        0.6647603439       21.9287878511
  C        11.8659088425        2.2160430556       21.3726819583
  H         9.7688320530        3.0505387230       18.1269396878
  C        10.0875228450        5.9327866187       17.4493078911
  H         0.8064656688        5.0055365807       28.5501951718
  H         1.4311609571        6.6570941375       28.5688257421
  C         2.6635620143        5.4321381487       29.8322325424
  C         5.1899194217       -0.2476799240       33.0198604963
  H         6.9109328583        2.8889423342       20.4719634034
  H         6.1621058584        1.4509130920       21.1234977904
  C         6.0292301800        1.7104923183       18.8984593691
  H        11.7137307294        2.9120108290       22.0924430562
  H        12.1846500511        2.8619695578       20.5947547373
  C        13.0245821047        1.3373756507       21.8270502670
  C        10.0856672805        7.3460262468       17.2750451990
  C        10.4334544708        5.1516372638       16.2059998240
  H         3.3298670868        4.5486311870       29.9323481059
  H         3.3731818662        6.2340465479       29.8673053785
  C         1.8953569243        5.5336809827       31.1638204339
  H         5.3202038244       -1.3006738309       32.9532322141
  C         4.9452962150        0.1898453393       34.3431207008
  H         6.1482853065        0.7005124259       18.5229122217
  H         6.5434673844        2.4417337033       18.2169998212
  C         4.6210443144        2.0979579477       19.0863388116
  H        12.8416919657        1.1509652490       22.8685129445
  H        12.8086959235        0.4828790040       21.2041325962
  C        14.4381118177        1.9109738846       21.5262178490
  N         9.8385758336        8.3000612810       18.2657461884
  C        10.3016968585        7.9954643584       16.0336834739
  C        10.7641413757        5.7771492945       15.0275290201
  H        10.5280970153        4.0585041713       16.3717603554
  H         1.1114388658        4.8125712242       31.2688495039
  H         2.5990456725        5.4021875671       31.9600237228
  H         1.4926804243        6.5004911062       31.3326447520
  S         4.5525542133        1.8121571621       34.8625171515
  C         4.9653627755       -0.8879545097       35.3735210367
  H         4.4900599791        2.8968502469       19.8753435158
  H         4.2886705657        2.5348319779       18.1500869343
  C         3.7110459277        0.8670347143       19.4068819722
  H        14.5281826722        2.2788206783       20.5067475889
  H        15.0883934347        1.0053547577       21.5373153322
  C        14.9065082518        2.8095657479       22.5636455546
  S         9.7626470412        9.8113412928       17.6741119481
  N        10.0420176864        9.3670572763       16.1178698119
  C        10.6372792768        7.2566206530       14.8459502172
  H        11.0596093105        5.1447829025       14.1789595732
  C         4.2954998661        1.0315070006       36.3999184438
  N         4.5806098087       -0.3555610321       36.5177069242
  O         5.0811421291       -2.0211203904       35.1663613358
  H         3.3656974638        0.8921344586       20.4441515790
  H         4.3556826848        0.0164782648       19.3895093451
  C         2.3562918938        0.9068462058       18.6373530984
  H        14.4033667250        3.7191388316       22.5345651353
  H        14.7257326965        2.3507841242       23.5432711816
  C        16.4139294972        3.1104598880       22.4298875430
  C        10.7749921365        7.8855252257       13.5885182830
  S         3.6760716190        1.9067655587       37.7702837172
  C         4.3205974202       -1.0881195540       37.7544612919
  H         1.6854825994        1.7591292829       19.0076728739
  H         2.4905101900        1.1590094201       17.6090433655
  C         1.5793225036       -0.3006911978       18.7418818403
  H        16.7227651344        3.9927739725       23.0164639386
  H        16.6768554719        3.2442215266       21.3731565352
  C        17.3269770830        1.9926524332       22.8788419214
  H        10.5288887447        8.8954768810       13.6510955192
  C        11.3262074788        7.4704672352       12.4107511794
  H         3.4504976092       -0.7317143592       38.3976941638
  H         4.0119115347       -2.0822011814       37.4392856193
  C         5.6251090527       -1.1454142341       38.5326190290
  H         0.6437921479        0.0203292602       18.3922477047
  H         1.4944935150       -0.6213092312       19.8006653481
  C         2.2001808074       -1.4453099567       17.9299868664
  H        17.1031703965        1.0795575445       22.3184659289
  H        18.3852839172        2.2123609386       22.5289447963
  C        17.4721657931        1.9456301437       24.4063557662
  S        12.0696179436        5.9937777486       12.0144769364
  C        11.3049397128        8.4535961999       11.2945485422
  H         6.2347330915       -2.0037143099       38.3973720982
  H         6.2882879084       -0.2718122551       38.4182040344
  H         5.3975440730       -1.1742617729       39.6224505077
  H         3.0262515062       -1.1532074743       17.3020683147
  H         1.4777833359       -1.9692979203       17.2639553909
  H         2.5585320989       -2.2342840400       18.5690075837
  H        17.2099412289        2.9102122511       24.7357323129
  H        18.4679126865        1.5956139425       24.6093173213
  H        16.7793500365        1.2841513362       24.8447391620
  C        12.1468310154        6.6828679875       10.3699485283
  N        12.0552750548        8.0226102875       10.2712888976
  O        10.8232635697        9.5897145365       11.4168388904
  S        12.8381024427        5.7294660303        8.9883821690
  C        12.2543346024        8.8349453315        9.0816006038
  H        12.3892330648        9.8707560576        9.4344459678
  H        13.1679976486        8.6794091870        8.5121543609
  C        11.0985306507        8.4977727493        8.1157848524
  H        10.6773982012        9.3445048799        7.5825552030
  H        11.5522552308        7.7926599586        7.3007400210
  H        10.2727128071        7.8863351273        8.5738478981
  H         4.3142232547        0.8940194808       12.9034131888
  C         3.8781897873        1.9006857616       12.9651099880
  H         4.7238847862        2.5375841858       12.7365367415
  C         2.9324667161        2.0771338806       11.7543782244
  C         3.2869812961        2.1504993200       14.3890583825
  C         3.6763611878        2.2457672590       10.3541222349
  H         2.1612870425        2.8458524550       11.9694505246
  H         2.2522871193        1.2134040499       11.6698526516
  H         2.8787706464        1.1672060099       14.7124390350
  H         2.4375852925        2.8615723772       14.2813034567
  H         4.0362173751        2.5537868765       15.1475958392
  C         4.4571947851        1.0079152244        9.7808998338
  H         2.9238824342        2.4997590106        9.6072861633
  H         4.3611128163        3.0661987881       10.4314146793
  C         5.3169045363        1.3016145904        8.4851248826
  H         3.6812529454        0.2839541044        9.4808393883
  H         5.0584750585        0.5322365184       10.5875742673
  C         6.5386934698        2.2196890813        8.7651733557
  H         4.5316597771        1.6421557962        7.7839263174
  H         5.6073939941        0.3817711563        7.8715391989
  C         7.7747787932        1.4739558300        9.1860267289
  H         6.7138342756        2.7822887722        7.8481866247
  H         6.2124130995        2.8572094343        9.5087013663
  C         8.9574911883        2.4447502316        9.2796164116
  H         8.0600144423        0.7455621024        8.4169657330
  H         7.6559365589        0.8009155761       10.0473118719
  C         8.6314697498        3.7501864861        9.9266840879
  C         9.4481914251        3.2045051629        8.0186579733
  C        10.0327147067        1.7867218434       10.1432982724
  C         8.8216997908        4.8983533397        9.1688287068
  C         8.1509488735        4.1061393522       11.1849738542
  C         9.3491346974        4.5395063019        7.9119563492
  C         9.9493407309        2.6556183257        6.8172446853
  H         9.5117092106        1.2863662125       11.0066760670
  H        10.5597237955        1.0664104819        9.5647869875
  C        11.0801397066        2.7927991828       10.6204888724
  S         8.2683219699        6.3083243872        9.9535661805
  C         7.9694515624        5.3758287415       11.3870501115
  H         7.9324256829        3.3102236775       11.8496793507
  C         9.6182032770        5.1993809642        6.7550295484
  H        10.1097065067        1.5760028700        6.8349161592
  C        10.2318725963        3.3169601075        5.6464690905
  H        10.7990819333        3.5812617053       11.2706407056
  H        11.4856842849        3.2529472759        9.6358749062
  C        12.2629649626        2.0952823879       11.2819411527
  C         7.5916017315        6.0334275764       12.6464796943
  C        10.0846949755        4.6832718449        5.5463591283
  H         9.4251451602        6.2718380377        6.8260520476
  C        10.5572710704        2.9112667706        4.3680958526
  H        13.0874586402        2.8193333615       11.4200875313
  H        12.5825005448        1.1939967068       10.7005572443
  C        12.0640995330        1.4885536294       12.6576409622
  C         7.5634007756        7.4237208064       12.8983824116
  C         7.2557203050        5.2027868216       13.8329775265
  C        10.3544019842        5.3559484923        4.2785802995
  C        10.7513052866        4.0145037783        3.5393408702
  S        10.8175681465        1.4120287154        3.6618929232
  H        11.0791851144        0.9992051466       12.6282572937
  H        12.8589008869        0.7362457526       12.8119189203
  C        11.9888130753        2.3825749658       13.8717836542
  N         8.1030818055        8.4203770169       11.9992623423
  C         7.3266045235        7.9482575534       14.1448214890
  C         7.1861921673        5.7590239483       15.1103556367
  H         7.3417853474        4.1051572913       13.7531554458
  C        11.6069024010        6.2423558237        4.4379026598
  C         9.1648574399        5.9502194748        3.5128103257
  C        11.0817649127        3.5474578653        2.2280511696
  C        11.3030202050        2.2079307351        2.1902678728
  H        11.0490902822        2.9678796992       13.7874691906
  H        12.7284094428        3.1515681605       13.9077831041
  C        11.8903496440        1.6204076989       15.2323448659
  S         7.9672888692        9.9393603507       12.7175829952
  N         7.4329334237        9.3678444338       14.1533153268
  C         7.1366738315        7.2369497616       15.3275700838
  H         6.9116820101        5.0958230110       15.9124756423
  H        11.3112233991        7.0827953142        5.1556046721
  H        11.8158919192        6.7919296873        3.4542317105
  C        12.8269948856        5.3909862032        4.9116672197
  H         8.9090776004        6.7492099829        4.0435161267
  H         9.4603424667        6.2706413673        2.5531264544
  C         7.9953651659        4.9120475083        3.3722696837
  H        11.1583441410        4.2517099008        1.3475412651
  C        11.6428803757        1.4350280799        0.9014447923
  H        10.8497859456        1.7874398606       15.6388066486
  H        12.0417579178        0.5062497621       15.0283734500
  C        12.8665723632        2.0562010850       16.3154938687
  C         7.0245796234        7.8918939620       16.6083351730
  H        12.6530246303        4.8352208976        5.8320961466
  H        13.0016581323        4.5590575446        4.1690725807
  C        14.1162627626        6.1994128584        5.0787389065
  H         7.8852647505        4.2240615571        4.1926771660
  H         8.1528311815        4.2748096777        2.4768938516
  C         6.6585102141        5.5517416938        3.0680572356
  C        11.8322942251        0.0346368615        0.7492297755
  C        11.8153093367        2.1482162280       -0.4242177795
  H        12.8190232971        3.1497090561       16.5891080803
  H        13.8753044533        1.9670828755       15.9383591789
  C        12.7391565219        1.3430962650       17.6822269003
  H         7.2006511641        8.9479507133       16.4980716052
  C         6.7133368580        7.4891236548       17.8439383056
  H        13.7261309758        7.2419834922        5.1694532000
  H        14.6587992469        6.2221519069        4.1442707283
  C        14.9874964397        5.7703159420        6.2983210250
  H         5.8077616032        4.9102275593        3.3682159803
  H         6.6004487802        6.4613593266        3.6610567551
  C         6.5323372026        5.8120429966        1.6213374721
  N        11.5900459840       -0.9366397860        1.7725996246
  C        12.1857508033       -0.5658488201       -0.4082456842
  C        12.1988615444        1.5807792877       -1.6087755636
  H        11.5729925251        3.2086521340       -0.5077925007
  H        11.8439465025        1.6709833963       18.2906366555
  H        13.5852800897        1.4440757941       18.2880112672
  H        12.6183563883        0.2908758550       17.4638851661
  S         6.3869021403        5.8865802285       18.4362205749
  C         6.6225573762        8.5817792370       18.8168581228
  H        14.8652329414        6.2891300073        7.1665514077
  H        14.6660916370        4.7280051559        6.6194967404
  C        16.4784701936        5.7573358474        6.0014626625
  H         7.0330393039        5.1042908871        1.0240752640
  H         7.1415820645        6.7089767049        1.4356376307
  C         5.0424851213        6.0729564748        1.0927740817
  S        11.5978790916       -2.4527739240        1.1318226485
  N        12.1105828429       -1.9566412301       -0.3305054371
  C        12.4043110517        0.0899472579       -1.6139768212
  H        12.2122220898        2.1525960510       -2.4818950060
  C         6.1332486619        6.7061074966       19.9825404098
  N         6.2238737558        8.0536195324       19.9851318401
  O         6.6138529510        9.8366695083       18.5141432570
  H        16.6216364471        5.3077585818        5.0370358111
  H        16.8047257331        6.7380761032        5.8673163696
  C        17.2210791905        4.9577020173        7.0663060884
  H         5.0008282764        5.6952060176       -0.0074349269
  H         4.3848665921        5.3813156802        1.6087584986
  C         4.5132131460        7.4808598748        1.2378718063
  C        12.6801414592       -0.6680459721       -2.8157862212
  S         5.7744828584        5.9642322470       21.5775755423
  C         6.2303360887        8.9056167019       21.1952967614
  H        16.5394108002        4.9405064232        7.9932550721
  H        17.3561427330        3.8789891573        6.8378213697
  C        18.6321873379        5.5008142424        7.3714960189
  H         5.0064299017        8.1055738413        2.0310167227
  H         3.5614118920        7.5514162401        1.8169974193
  C         4.3981898971        8.2527361806       -0.0539323146
  H        12.7334381088       -1.6970604344       -2.6369195370
  C        13.1993342602       -0.3787677955       -4.0160831366
  H         5.3676808518        8.6470949962       21.7987468423
  H         6.0912943721        9.9516499990       20.8798372031
  C         7.5980745097        8.8581483021       21.9844796769
  H        19.0336706237        5.0713317972        8.2769987144
  H        18.5397558458        6.5938216521        7.6068170523
  C        19.5923998534        5.3396657165        6.1741821514
  H         5.2560454691        8.0638445101       -0.6574303008
  H         3.5906980248        7.8642912570       -0.6834506327
  C         4.3058578857        9.7652623645        0.1273725846
  S        13.6923928530        1.1660724318       -4.4612470719
  C        13.5209745451       -1.3646259213       -5.0531195860
  H         7.7965476282        7.9461189140       22.4885076479
  H         7.3071384334        9.5772635004       22.7456282368
  H         8.4212024774        9.1768565819       21.3134244841
  H        19.2901985753        4.4650396055        5.5832074937
  H        19.5968799694        6.2089930806        5.5446654567
  H        20.6064323389        5.2502142738        6.5290497704
  H         4.9888186704       10.1722684686        0.9186584333
  H         4.4645631908       10.2940715547       -0.7923502240
  H         3.2915340552       10.1075799112        0.3813167546
  C        14.2905462317        0.5347067278       -5.9851224602
  N        14.2624431882       -0.8551393933       -6.0841138550
  O        13.3580574371       -2.5120032204       -4.7992040565
  S        15.2723940923        1.4667806125       -7.0803259944
  C        14.7076609266       -1.6833427984       -7.2132240044
  H        14.8169760431       -2.7494721101       -6.8852725611
  H        15.7157085894       -1.3006430017       -7.3876374278
  C        13.8594260201       -1.7295844776       -8.4351622205
  H        12.9468791627       -1.2358648828       -8.1872640590
  H        13.5770011860       -2.7383141365       -8.8149488027
  H        14.4189471635       -1.1779098494       -9.1555472275
