352
 i =      300, time =      150.000, E =       204.2330594775
  H        12.2615449164        7.0388522915       32.2337654621
  C        11.9559176112        5.9803183953       32.5091606817
  H        12.8273248211        5.3671633078       32.1308786830
  C        10.7975684848        5.5068458135       31.4368033626
  C        11.4261661401        5.7337583229       33.8073039534
  C        11.3499013552        5.6042595884       30.0248723628
  H        10.5824700789        4.5123579237       31.8841668839
  H        10.0740599184        6.2594901315       31.8031036221
  H        11.4855339634        6.7182573768       34.3086669159
  H        10.4106438455        5.4639771691       33.9938227547
  H        11.9592970455        5.0852675112       34.4607198803
  C        10.1994707976        5.4801981892       29.1206314651
  H        11.9751708977        4.7522202501       29.9304002959
  H        12.0152962590        6.4634161255       29.8627438735
  C        10.6618687827        5.4403113938       27.6135083991
  H         9.5496473611        4.5512883270       29.1076687941
  H         9.5602212077        6.4013336302       29.0048467375
  C         9.5748046947        4.8027426197       26.6530549934
  H        11.5692157223        4.9089473272       27.6393970620
  H        10.7948044952        6.4820745221       27.3135905690
  C         8.3963905124        5.6160881773       26.4921933817
  H        10.2726852106        4.8243676625       25.7840391320
  H         9.4870106066        3.7660961947       26.9408443861
  C         7.2170739068        4.9798742345       25.6130751201
  H         7.8752082775        5.8419022987       27.4142212376
  H         8.5337507510        6.5660751678       25.9940255950
  C         6.9457031294        3.6367144699       26.1808947244
  C         7.7224215120        4.3080200324       24.3163147915
  C         5.8335664369        5.7804207749       25.5334729796
  C         7.2663663784        2.4818553450       25.3534627718
  C         6.3697929938        3.2345591069       27.3953590816
  C         7.7275224745        2.9713550205       24.1096088172
  C         8.1434415300        5.0243330853       23.1661838950
  H         6.1003003968        6.7117184563       24.9324578946
  H         5.6084537087        6.0595065043       26.6079922399
  C         4.7375202351        5.0923389514       24.8605846190
  S         6.7398097122        1.0900688251       26.0420445317
  C         6.2684994188        1.8868710821       27.4130416341
  H         6.1843030464        3.9603531729       28.1013962571
  C         8.1865696405        2.4257133928       22.9535318404
  H         8.1182505760        6.0011779072       23.1747656478
  C         8.6234889836        4.4527729925       22.0089415139
  H         4.9361751147        4.8107329334       23.7543055601
  H         4.1811374967        4.2007556838       25.3029525332
  C         3.4945962831        5.9659782430       24.6970530803
  C         5.7023943516        1.2015124605       28.5678400800
  C         8.5962622438        3.1232575215       21.8014258310
  H         8.2247330929        1.4296374056       23.0131991271
  C         9.0161957936        4.9489056208       20.7799373549
  H         2.8842225728        5.4294911836       23.9940081693
  H         3.8442901590        6.8129852300       24.1297589286
  C         2.8235776496        6.2749845823       26.1016669545
  C         5.8549336654       -0.1879429727       28.7853158490
  C         5.1899770579        1.9993585844       29.6894490725
  C         9.1124845817        2.4742871426       20.5253495820
  C         9.3469711094        3.8558048336       19.9911933477
  S         9.2088375879        6.4160811294       20.0182696059
  H         2.0975529915        7.0693593225       25.9307698187
  H         3.5683952601        6.7898940660       26.7520485462
  C         2.3159707458        5.0506732084       26.7651019988
  N         6.3171931311       -1.1451481517       27.8816984151
  C         5.5411675818       -0.7093208103       30.0066285168
  C         4.9548103375        1.4218060304       30.9496105757
  H         4.9391886095        2.9299252121       29.5711402900
  C         7.9720414760        1.6656920126       19.6667358067
  C        10.2746801392        1.5592300527       20.7374762767
  C         9.8361968987        4.3003448829       18.7437021592
  C         9.7561793303        5.6411326549       18.6286862299
  H         1.7016407257        4.4649253964       25.9640534076
  H         3.0565785685        4.3763468589       27.2832709715
  C         1.2902245659        5.2596006817       27.9764094813
  S         6.2717601187       -2.5654537782       28.6572381319
  N         5.7991028416       -2.0363608877       30.0876925482
  C         5.1576564213       -0.0197540641       31.2163956232
  H         4.5897157541        2.0517823855       31.6596794684
  H         7.7512371146        0.9049664773       20.4476765743
  H         8.4999861230        1.2186807285       18.7771411801
  C         6.7330924849        2.5378622932       19.4195890308
  H        10.7994337790        1.0616084201       19.8555668657
  H        10.0529112031        0.7312108091       21.4582123999
  C        11.4594373924        2.1961233016       21.3908976264
  H        10.1153760819        3.5908000514       18.0195306516
  C         9.9993180663        6.3281191013       17.3278730802
  H         0.5674773215        4.4716411934       27.9475813251
  H         0.8293698581        6.2232053957       27.7881731569
  C         2.1259213231        5.2329076545       29.2244662253
  C         5.0066937346       -0.6290644789       32.4411666062
  H         6.9389094078        3.4646361367       18.8992645023
  H         6.2994215910        2.8143553674       20.3650291619
  C         5.7145900630        1.6375912498       18.6626749789
  H        11.0641801134        2.4249756184       22.4050194533
  H        11.8109998654        2.9875018431       20.7128005359
  C        12.6590372681        1.2519434631       21.8521774130
  C         9.9086925782        7.7284542683       17.2130017275
  C        10.2428773742        5.5742848298       16.1308304161
  H         2.6825498771        4.2865869241       29.3865924552
  H         2.9727871953        5.9918961443       29.3005977813
  C         1.1830262890        5.5187299302       30.4781596109
  H         5.1041874321       -1.7123966415       32.4147705218
  C         4.7227401330       -0.1113693418       33.7016880981
  H         5.1734574359        0.9117052288       19.3362522977
  H         6.1756546664        1.0836394817       17.8144673456
  C         4.5199985139        2.3115009076       17.9221217443
  H        12.2560420715        0.5066771355       22.5623339680
  H        12.9559272452        0.5866138077       21.0143841536
  C        13.6582025019        2.1706146184       22.5265703796
  N         9.6185980792        8.6206832708       18.2918449873
  C        10.1879687761        8.3624238352       16.0504277654
  C        10.5113055534        6.2614301270       14.8782225165
  H        10.3196971158        4.5938319620       16.1718451972
  H         1.8179832017        6.0972528976       31.1297339995
  H         0.3726401136        6.1200059304       30.2470628547
  H         0.9354050044        4.6397917515       30.8340374211
  S         4.3833838785        1.5775654805       34.1942904744
  C         4.6827859873       -1.1714731336       34.8423782553
  H         4.5917046018        3.3601001814       18.0675945128
  H         4.7267481287        2.1390008550       16.8599262011
  C         3.2415239357        1.5556201387       18.2636027330
  H        13.7256174612        2.3290164195       23.6115180390
  H        13.7495913373        3.2359458444       22.2946832375
  C        15.1414918713        1.7302613448       22.2915875114
  S         9.8299550264       10.0617719472       17.6731509901
  N        10.2685403554        9.7644998054       16.1910842183
  C        10.6187395751        7.7696086292       14.7762672491
  H        10.6884248595        5.6010629073       14.1676333010
  C         4.2055291241        0.8503148563       35.8047107648
  N         4.3308000905       -0.5305823577       36.0032617555
  O         4.9555561477       -2.3902981538       34.7399837669
  H         2.3990368619        2.1938637504       18.1317382805
  H         3.0663341429        1.4550219614       19.3481353196
  C         3.0752699619        0.3074536241       17.5146673102
  H        14.9564364860        0.6974537181       22.4765390956
  H        15.3652325774        1.8991189658       21.2801230651
  C        16.0209474171        2.4727786611       23.2751572542
  C        11.0015978733        8.4787810840       13.7154091479
  S         3.7112173083        1.7160935448       37.2422709682
  C         4.3982322912       -1.2819725110       37.2376700899
  H         2.5777545960        0.3862873808       16.5694766920
  H         4.0560959138       -0.0758328781       17.1952250933
  C         2.4317161267       -0.8804294222       18.3119665415
  H        15.5604986779        2.6261809715       24.2604033687
  H        16.1780344918        3.5033384386       22.9036713059
  C        17.3035796082        1.6829002310       23.4785235003
  H        10.8654947148        9.5037996458       13.7950513568
  C        11.4606483630        8.0358205692       12.4803079072
  H         3.6178601612       -0.9010943072       37.9683407732
  H         3.8680944829       -2.3013600792       37.3386521434
  C         5.7844875634       -1.2328011117       37.7796890219
  H         1.4700791588       -0.5422511053       18.4698929652
  H         2.8380004507       -0.8452114183       19.2273623453
  C         2.4866754492       -2.1852070417       17.6136219588
  H        17.9601644724        1.9595258904       24.4141747466
  H        17.1780394352        0.5333925214       23.4864956410
  C        18.4857583678        1.9077540824       22.3707277888
  S        11.9884018326        6.4769138150       11.9569999053
  C        11.6279988798        9.2269175409       11.4967477931
  H         6.0878081285       -2.1015346115       38.1695941241
  H         6.5378433670       -1.0292551929       37.0977280752
  H         5.8339190370       -0.4951596684       38.5324928330
  H         1.9430591867       -2.8960534316       18.0574361948
  H         3.4152199664       -2.5706523689       17.6417098310
  H         2.1891986106       -2.1284359538       16.6446066221
  H        19.3591898162        1.3348390193       22.7359665134
  H        18.5740438499        2.9897268724       22.1590859414
  H        18.0803823402        1.3781708959       21.5777147063
  C        12.1226528696        7.2918847345       10.3780578041
  N        12.0257451614        8.6498780483       10.3359777217
  O        11.4560660247       10.4313968015       11.8070905371
  S        12.5966955652        6.4057687118        8.8866101203
  C        12.1692952505        9.4077447338        9.0578899639
  H        12.3003974916       10.4716215710        9.2816115577
  H        13.1535490853        9.2387530728        8.6217877319
  C        10.9286810104        9.3050015740        8.1763632678
  H        10.3769266739       10.1151011762        8.1479695121
  H        11.2273457346        9.1214680805        7.2819794671
  H        10.4952255417        8.4758841408        8.5045498939
  H         4.9321810495        1.7889817254       12.2748812296
  C         4.3123516851        2.6749037224       12.4958625865
  H         4.9379377556        3.5807116512       12.3609229100
  C         3.1067202605        2.7707813035       11.5039607112
  C         3.8347455380        2.6654388630       13.9178949039
  C         3.7214448838        2.8990987340       10.1606181191
  H         2.5149421015        3.5680506591       11.8563270486
  H         2.5537172181        1.8694053997       11.5905385648
  H         4.6084398918        2.5879408160       14.4798417366
  H         3.2355671860        1.9012031193       14.1398661105
  H         3.4408367011        3.4950600288       14.2556118786
  C         4.5233070391        1.7479923659        9.5736155481
  H         2.9308611261        3.2059271064        9.4804615713
  H         4.3031552319        3.8422139396       10.0320033975
  C         5.1981380112        2.0830856365        8.3009279043
  H         3.7494816226        0.9673293846        9.3595834693
  H         5.2381440329        1.3492011391       10.3478397814
  C         6.5466374936        2.8203013133        8.4872690269
  H         4.6261031673        2.6259037627        7.5145795160
  H         5.5487477933        1.2187410619        7.7307655015
  C         7.6536742543        1.9686904504        9.0030674310
  H         6.5827927202        3.2552897257        7.4891606440
  H         6.2651172580        3.7142084884        8.9627937828
  C         8.9719095561        2.8033201149        9.1848079962
  H         7.9961313616        1.2665802233        8.2315864181
  H         7.4413032839        1.3935435915        9.9661411361
  C         8.6199203122        4.1186954093        9.7938131554
  C         9.3070634031        3.5147461060        7.8879482199
  C        10.1181653741        1.9953490843        9.8326163719
  C         8.8573860821        5.3254311912        9.0345461282
  C         8.1107237167        4.5138221480       11.0521263114
  C         9.2669937218        4.8885531771        7.7741749451
  C         9.7240576612        2.8011440852        6.7183389237
  H         9.6627266068        1.5470733932       10.7389797175
  H        10.4226038747        1.1905830829        9.1235252438
  C        11.3378433238        2.8745565361       10.1552232864
  S         8.5139074374        6.7880855342        9.8017957236
  C         8.0892480066        5.8807498049       11.1671870335
  H         7.9111692634        3.7619249588       11.7050810568
  C         9.5600766208        5.4592535716        6.5541328431
  H         9.7522239569        1.7905487988        6.6886791328
  C        10.1004443434        3.4407738345        5.5153566983
  H        11.2538484093        3.9561644666       10.3731602333
  H        12.0087468726        2.7907254386        9.2813627105
  C        12.2284815569        2.2742229747       11.2338414712
  C         7.6358494983        6.4826994605       12.4235662802
  C        10.0245862090        4.7954741542        5.4205550648
  H         9.4344200550        6.4922400492        6.6087390703
  C        10.4540183539        3.0883599558        4.2350451869
  H        13.2084399042        2.6616464298       11.1663304338
  H        12.2181709498        1.2023535105       11.0175752790
  C        11.6683967882        2.4316891113       12.7130178683
  C         7.7263296028        7.8700831478       12.7073466277
  C         7.1839342735        5.6882889337       13.5550440303
  C        10.4640184289        5.5576186020        4.1293057620
  C        10.7142545071        4.1990070706        3.4488236420
  S        10.8028047474        1.6770776038        3.4582427281
  H        11.2223884634        3.3706505638       12.6891314692
  H        10.9098576133        1.6587728215       12.7359978457
  C        12.7054402033        2.1176800355       13.7441475146
  N         8.1043297443        8.8740822459       11.8142461868
  C         7.4270261302        8.3784318194       13.9582753050
  C         6.8736848686        6.2365806048       14.8468306197
  H         7.1395034730        4.6608881955       13.5032133881
  C        11.7702737495        6.3981011529        4.3410181977
  C         9.3385314488        6.3574275081        3.3582551978
  C        11.1557211501        3.8329452886        2.1252385775
  C        11.2792824017        2.5001691955        2.0723966117
  H        13.5083538375        2.8274025586       13.8278504896
  H        13.1548532916        1.1109524529       13.7458693758
  C        12.1164284477        2.3021684982       15.2872145173
  S         8.0221392667       10.2848122991       12.6402849738
  N         7.6392208144        9.7361896600       14.0620764811
  C         6.9827972814        7.7027233773       15.1512857008
  H         6.6000341091        5.5472869841       15.5406973202
  H        11.6269203481        7.1772298166        4.9977938632
  H        12.0037206418        6.9620719600        3.4984020763
  C        12.9407484370        5.5973840896        4.8368909349
  H         8.9229534253        7.0928879475        4.0455860461
  H         9.7193126424        6.9292985397        2.5591529256
  C         8.0657614686        5.5047846278        2.9000222855
  H        11.3856537575        4.6184100273        1.4950479262
  C        11.7277526959        1.7911350110        0.7896453438
  H        11.8838081464        3.3924671992       15.3017589093
  H        11.2075428564        1.6749351357       15.3261818654
  C        13.1179718705        1.9195737821       16.3560352478
  C         6.8101178754        8.3451772482       16.3249002410
  H        12.7627502359        4.9897007421        5.7210955523
  H        13.4721934251        4.9669438022        4.0964400116
  C        14.0131237986        6.4861483927        5.5687548776
  H         7.7173739101        5.1232225096        3.8634525155
  H         8.3758811324        4.7340533301        2.2335393803
  C         7.1008585204        6.4296541214        2.2749071838
  C        11.7876007428        0.4080251225        0.6987821218
  C        12.1176347276        2.4812452293       -0.4616494298
  H        14.1011817051        2.2551236746       16.2105392500
  H        13.2904767934        0.9067865818       16.3041199964
  C        12.5637564932        2.2473868856       17.7415832070
  H         7.0091917777        9.4326833063       16.3237137499
  C         6.6065134264        7.8677164699       17.6247919995
  H        13.4864192968        7.0124002185        6.3048355083
  H        14.2366346303        7.2197729629        4.8447434296
  C        15.0700374563        5.5745742813        5.9816399580
  H         6.7615760280        7.2177797817        2.9677027820
  H         7.4733321379        6.8489408537        1.3496177889
  C         5.7481425478        5.6826657138        1.8183904018
  N        11.4990950939       -0.4757434744        1.7424953513
  C        12.1086950044       -0.2404722121       -0.4300012248
  C        12.5083204932        1.7939187102       -1.6283974226
  H        12.2403717855        3.4450933068       -0.4856101111
  H        13.1336433209        1.7958016566       18.4698271012
  H        11.6531523077        1.8870058395       17.9747237830
  H        12.5119652506        3.2233324125       17.9493929277
  S         6.2690046082        6.2331747350       18.1105900317
  C         6.5553198302        8.9548565536       18.6987145171
  H        15.0101299055        4.9328650112        6.8682258055
  H        15.5490864949        4.8999617079        5.2721897609
  C        16.3458008724        6.3741166715        6.5828002289
  H         5.7131720291        4.6920748544        2.1255929207
  H         5.8793100880        5.6038653548        0.7828075720
  C         4.5596955099        6.5515925583        2.1177567808
  S        11.6271620476       -1.9760405780        1.1398759660
  N        12.1251206956       -1.6394363854       -0.2858859390
  C        12.4795289202        0.3182447254       -1.6809564736
  H        12.7595329039        2.3247123953       -2.4058411019
  C         6.1982431390        7.0031972492       19.7458349049
  N         6.1259878597        8.3600087673       19.8596913823
  O         6.5063141418       10.1716458900       18.3763094064
  H        16.6158665364        7.0800324178        5.7954144038
  H        15.9609209252        6.8823074422        7.4826785433
  C        17.5023962208        5.4724751241        6.9620278687
  H         3.6383061756        5.9967218585        1.7395265319
  H         4.3725647261        6.9843657877        3.1671383607
  C         4.4704989985        7.8314731188        1.1580215819
  C        12.8652131364       -0.4754505505       -2.7739073670
  S         5.7024906127        6.1615999428       21.1718989233
  C         5.8009625674        9.1046471140       21.0375726261
  H        17.1427833205        4.9591445311        7.8677126257
  H        17.6730551063        4.6377147428        6.2073641460
  C        18.7431270188        6.2698269932        7.1894090342
  H         4.1745235299        7.4115360305        0.2262391325
  H         5.4473409680        8.1573078915        0.9624827574
  C         3.4145473739        8.8190887852        1.4967916587
  H        12.5908684467       -1.4151077084       -2.6312810725
  C        13.2013982844       -0.2158665359       -4.0471159233
  H         4.9345068487        8.7830108690       21.6780495444
  H         5.5025930824       10.1712426057       20.8581096538
  C         7.1021882482        9.2624581418       21.9248126537
  H        19.2580870469        5.9894654975        8.1898512534
  H        18.5856267162        7.4578757150        7.2902306293
  C        19.8006914292        5.9159380722        6.1183406231
  H         2.3242896340        8.4565054157        1.4872216965
  H         3.4862819675        9.0377438812        2.5693945866
  C         3.5251269313       10.1263313924        0.7369775578
  S        13.5949654295        1.2292302592       -4.8343901130
  C        13.2575609737       -1.4734015753       -4.8583148242
  H         7.5698105192       10.1725344283       21.7290986920
  H         7.6126269315        8.3229355497       21.6788886985
  H         6.5685576592        9.2483298776       22.8577393979
  H        20.5994494694        6.5431348738        5.9762650015
  H        20.1043906269        4.9097209511        6.1337467031
  H        19.2560202253        5.9127587493        5.2245357051
  H         2.9916625354       10.8440767773        1.1270480081
  H         4.4741972390       10.4245651423        0.8732421658
  H         3.3451381204        9.9707177141       -0.2316127579
  C        13.9206684065        0.1370299598       -6.2519164425
  N        13.7598826912       -1.1884027700       -6.0844028046
  O        13.0232412012       -2.6104796190       -4.5198616034
  S        14.1838859221        0.6711088831       -7.9274745525
  C        13.7669302044       -2.1716263152       -7.1856273850
  H        14.1705385510       -3.1698400204       -6.7864293594
  H        14.6540887164       -1.8707764682       -7.7267756354
  C        12.4539232633       -2.2767734536       -7.7461086642
  H        11.6554710595       -2.3955327531       -7.0888920144
  H        12.3401098789       -3.0254530010       -8.4751478410
  H        12.1453618310       -1.4274175524       -8.2945996361
