352
 i =      400, time =      200.000, E =       191.0927523046
  H        11.8579794532        7.0444206787       32.2247187282
  C        11.8549963094        6.0571356724       32.4231126224
  H        12.7499356719        5.7477483957       32.0959855293
  C        10.7564314600        5.6172944305       31.4157166641
  C        11.5767229614        5.7495261406       33.8430429885
  C        11.2102642504        5.6641756395       29.9816083025
  H        10.6942790565        4.6160151036       31.6985031529
  H         9.9421652239        6.1981935416       31.6317024321
  H        11.5120991052        6.5406015089       34.5120363431
  H        10.6470938404        5.1582966421       33.9650226926
  H        12.3047219477        5.0425761869       34.2150733379
  C        10.0860954528        5.6558476628       28.9712738033
  H        11.9364328946        4.7566855001       29.9457224958
  H        11.9055212322        6.5502641222       29.9287322592
  C        10.6419646526        5.3501302383       27.5174802303
  H         9.4048457116        4.9258046749       29.1876776127
  H         9.6143625538        6.5141887946       28.7908097456
  C         9.5696593101        4.7614326120       26.6733333924
  H        11.5207885022        4.6490274072       27.7368643142
  H        10.9700882238        6.3557567846       27.1385346827
  C         8.4643598794        5.7812525539       26.3574956912
  H        10.1236575219        4.5431093161       25.8257922937
  H         9.1948797354        3.8077077689       27.0455622838
  C         7.2598772576        5.1374509765       25.5674577300
  H         8.0325500979        6.2425885632       27.2507761845
  H         8.7841572376        6.5942925596       25.7171102032
  C         6.9129967586        3.7029627451       26.1629336096
  C         7.6857547908        4.3912793838       24.3003486283
  C         6.0234876533        6.0044689109       25.4258755262
  C         7.1251732015        2.6492734399       25.3407420086
  C         6.3863508175        3.2344426079       27.3854210391
  C         7.6506971721        3.0292809512       24.1582067114
  C         8.2561342211        4.9606721945       23.1682483905
  H         6.2429081713        6.6846213524       24.6080536595
  H         5.7762562610        6.5395330654       26.3628017471
  C         4.7908270263        5.1859012699       24.9756593757
  S         6.7126154186        1.0948946480       25.9811832010
  C         6.1688420351        1.9442230070       27.4583524283
  H         6.0518826837        3.8232562149       28.1510057050
  C         8.0471314568        2.4730868198       23.0178186608
  H         8.3054880092        6.1720256454       23.1299875603
  C         8.5654105911        4.3620783283       22.0294816761
  H         4.9481007225        4.8780350325       23.9720961502
  H         4.6976929177        4.3272531252       25.5674171608
  C         3.5462555901        6.0724377298       24.9563910165
  C         5.6400797026        1.2595448639       28.7162316848
  C         8.5685578384        3.0374015103       21.8706984799
  H         7.8546382700        1.3191565551       23.1061926268
  C         9.0342451616        4.7742618877       20.8070711006
  H         2.7892835099        5.6219703107       24.1972886228
  H         3.8117395259        7.0979655419       24.4678157080
  C         2.8111133655        6.1062049593       26.2404572605
  C         5.8379538547       -0.0947576131       28.9410210874
  C         5.1371186346        2.0265451145       29.8111708857
  C         9.0302940543        2.3451042075       20.6502022526
  C         9.2808787615        3.6938815510       20.0098104124
  S         9.3126663884        6.2671385624       20.0595352474
  H         2.0242845913        6.8972605259       26.0561118115
  H         3.4621084385        6.4900350216       27.0406601231
  C         2.0953794213        4.8342435487       26.7273972232
  N         6.2373244604       -1.0893513405       28.0106436898
  C         5.5142594675       -0.6851790217       30.1246461725
  C         4.8463533281        1.4363860082       31.0465632599
  H         4.9440766832        3.1372776445       29.7201141259
  C         7.9366515251        1.6178510509       19.7571581767
  C        10.2831379220        1.5181327690       20.9072605292
  C         9.6904528433        4.1659124796       18.7644649581
  C         9.6444952654        5.4681683277       18.5788081459
  H         1.3694994315        4.4126517978       26.1161932603
  H         2.8857196282        4.1711849057       27.0290865235
  C         1.2818524858        5.1121911988       27.9603825441
  S         6.2675181457       -2.5406753598       28.6742803821
  N         5.7139182070       -2.1213973982       30.1219090821
  C         5.1357180339       -0.0064967613       31.3057976491
  H         4.3651956028        2.1294850464       31.8332595893
  H         7.6272368225        0.8237919972       20.4334737981
  H         8.4502655142        1.2575706263       18.8616521856
  C         6.6707291442        2.4005266902       19.4367324418
  H        10.5326684473        0.8915697396       20.1311699630
  H         9.9835902863        0.8940749351       21.7624977745
  C        11.5049359684        2.4204827341       21.4276250912
  H         9.8948009009        3.5367987873       18.0196794804
  C         9.9251638791        6.2978337747       17.3289597154
  H         0.5593171831        4.1970987937       28.1289947902
  H         0.7323728540        6.0948518923       27.8319750918
  C         2.0305891879        5.2372870143       29.2337964646
  C         4.9228652416       -0.7311324386       32.4956957468
  H         6.8694247321        3.3818155924       18.8540845368
  H         6.1134003079        2.5829217367       20.4347317193
  C         5.7942248219        1.5364481298       18.6516731395
  H        11.3077827339        2.8408267309       22.3773345334
  H        11.7251249086        3.0952909957       20.6256802672
  C        12.7734034035        1.6522408857       21.7901388606
  C        10.0087389801        7.7240533699       17.2407818210
  C        10.1447831242        5.6060433052       16.0844900748
  H         2.6780125803        4.3724925143       29.4126728703
  H         2.6655025650        6.1142253488       29.1730206028
  C         1.0582331671        5.2686413232       30.4420993065
  H         5.0747921382       -1.8728557996       32.5264871852
  C         4.6831686397       -0.3012827532       33.8236354175
  H         5.3143498355        0.7550908709       19.1979267510
  H         6.3572691661        1.1698781275       17.7735633110
  C         4.6359335743        2.3376055432       18.0201070873
  H        12.4965922396        0.7913407377       22.3910948548
  H        13.2576584179        1.2653853564       20.9019230505
  C        13.7058277239        2.2541075159       22.6503256590
  N         9.7373772050        8.7265753022       18.2431027210
  C        10.3123299023        8.3933528026       16.0255250739
  C        10.5008147269        6.2684118617       14.9048453113
  H        10.0263150586        4.5384050424       16.0411289530
  H         1.5919285920        4.7954548034       31.3208756745
  H         0.8026738782        6.3624714617       30.6803299352
  H         0.1288765010        4.6331299220       30.0153192340
  S         4.4878579985        1.3702734212       34.2868546980
  C         4.5769620988       -1.2323266457       34.9037374976
  H         4.6603893957        3.3666961352       18.5363271496
  H         4.8789956616        2.5806115557       16.9459225143
  C         3.2809271541        1.7855571625       18.1038568338
  H        13.4613584902        2.1193674120       23.6568364022
  H        13.7149200908        3.3200235504       22.6246977733
  C        15.0825021783        1.6263998171       22.3516473761
  S         9.9881622256       10.1854259443       17.6349888130
  N        10.3861481833        9.8369795755       16.0878809681
  C        10.6154752667        7.7579267431       14.7993979483
  H        10.6194846191        5.5767541339       13.9061709688
  C         4.1648539617        0.6888647479       35.8821080514
  N         4.3053814019       -0.5858281958       36.0512102642
  O         4.6687630789       -2.4430039537       34.6241143342
  H         2.5999967777        2.5854577631       17.6638300169
  H         2.7994524558        1.8646188021       19.0877926905
  C         3.1216528197        0.3849602699       17.4681630161
  H        14.8998795068        0.5632608172       22.6499061799
  H        15.4250900418        1.6257445758       21.2178894329
  C        16.2160066292        2.2767990573       23.1581271204
  C        10.9468316192        8.5320260523       13.6584983366
  S         3.6915923769        1.6728045019       37.3134650377
  C         4.3138625720       -1.3012602008       37.3513577596
  H         2.4815575716        0.4623415216       16.5072702995
  H         4.0748320888       -0.0137269918       17.0236744905
  C         2.4886897565       -0.7413352928       18.3631662732
  H        15.7743723421        2.5949681969       24.1645691880
  H        16.4635959352        3.2552550667       22.6378839448
  C        17.5065713852        1.4969454693       23.3651584000
  H        10.8513672779        9.6575559984       13.7418864128
  C        11.4545856232        8.2218249362       12.3710951407
  H         3.6735414730       -0.8195774798       38.0309307013
  H         3.7936312379       -2.1600231210       37.2848882796
  C         5.6585103381       -1.2773854258       37.9378614919
  H         1.5132482119       -0.3341151599       18.7792517045
  H         3.0243543101       -0.6886061606       19.4035520764
  C         2.5472543036       -2.0089380862       17.6660159479
  H        18.0438380777        1.7599962498       24.1782347840
  H        17.3642344460        0.4814592544       23.2150237615
  C        18.4177968844        1.7813436473       22.0769019202
  S        11.8022192115        6.5491393143       11.9443231880
  C        11.6555875331        9.1718336772       11.3176471835
  H         6.1552994784       -2.2648779300       38.3910105265
  H         6.5404207344       -1.0393009039       37.2565009023
  H         5.7550674778       -0.4442959502       38.7321489364
  H         1.8332175638       -2.8437671104       17.9546970794
  H         3.4698751620       -2.6460651234       17.6935005508
  H         2.2859788369       -1.9130764330       16.5842352554
  H        19.2515231910        1.1559243097       22.1661427000
  H        18.6959265477        2.8186263019       22.2184071664
  H        17.9115734493        1.6189153241       21.0650777070
  C        12.2361322747        7.2279808678       10.3959103839
  N        12.1544756096        8.5525228827       10.2328173201
  O        11.3849300207       10.3882275956       11.4228126807
  S        12.5388599760        6.3241022715        8.9238677506
  C        12.3229381954        9.2926881552        9.0545542367
  H        12.7853398873       10.3137589991        9.2129574940
  H        13.1293481732        8.8945433890        8.3679244053
  C        10.9775272515        9.3034412267        8.2348242971
  H        10.6664702449       10.3858615700        8.4544773234
  H        11.1379673705        9.2507604689        7.0818427736
  H        10.3553835120        8.4374759890        8.6307755245
  H         4.9503179303        1.7691277128       12.5178930970
  C         4.2554170885        2.6721565078       12.5408649418
  H         4.8763051448        3.5760480132       12.3290816162
  C         3.1597509311        2.6611910411       11.4478008516
  C         3.6875244175        2.7118447029       13.8924468408
  C         3.6012432183        2.8797212451       10.0076440519
  H         2.5358332639        3.5611885251       11.7940123391
  H         2.5423242588        1.7117342001       11.5733935582
  H         4.3301201357        3.3143329131       14.6853481363
  H         3.5065604714        1.6401428917       14.2935579149
  H         2.6952754909        3.3120994770       13.9751807421
  C         4.4491453392        1.6677376194        9.5367958003
  H         2.6897813962        3.0231848747        9.4253065871
  H         3.8489253278        3.8948864900        9.9302070969
  C         5.1650912166        1.8519777338        8.2421157218
  H         3.7268111608        0.8328079452        9.4170739737
  H         5.2688522121        1.3667798684       10.2718080056
  C         6.4009413540        2.7355875229        8.4577114959
  H         4.4745817916        2.2163559375        7.4586514795
  H         5.4838085987        0.8551377971        7.7852855662
  C         7.6209505852        1.9224976715        8.9377708411
  H         6.6750999180        3.1624865380        7.5068948414
  H         6.1994818357        3.7859444713        8.9351792221
  C         8.9153844738        2.7274595335        9.0441992720
  H         7.8118170353        1.1816923244        8.1735989131
  H         7.3927769551        1.5003950850        9.9144258743
  C         8.5932025077        4.0618050470        9.7440140810
  C         9.2592561375        3.5047138924        7.7480638167
  C        10.0598239248        2.0354768259        9.9641839167
  C         8.8255105548        5.1646586893        8.9815556365
  C         8.2252786384        4.3865943052       11.0541973983
  C         9.2497797862        4.8358394129        7.7247945873
  C         9.6500099174        2.9374225533        6.5326628258
  H         9.6038396355        1.8211122833       10.9845795519
  H        10.3949841368        1.0458144841        9.5174870337
  C        11.2812497469        2.9260078202       10.2200914731
  S         8.4609737404        6.6260251559        9.7731745365
  C         8.0557149010        5.6732614184       11.2266605284
  H         7.9820162730        3.7413802553       11.7727713148
  C         9.5671492482        5.4601666128        6.5743802962
  H         9.6643645016        1.7316581614        6.4432205496
  C         9.9897408916        3.6002064506        5.4080187012
  H        11.1023357779        3.9868128122       10.4378145654
  H        11.9070806040        2.8603617398        9.3221675501
  C        12.2557700077        2.3726918907       11.2883349671
  C         7.5857914389        6.4331461665       12.4862028017
  C         9.9327095997        4.9352340118        5.3506240751
  H         9.3562413657        6.6125680217        6.7135682758
  C        10.4065771626        3.2124973108        4.1400753656
  H        13.2748771657        2.9741361984       11.3051457258
  H        12.4368490092        1.3559883603       10.9562167782
  C        11.6227841111        2.2782959477       12.6457738343
  C         7.8521731237        7.7868564271       12.7694860778
  C         6.9859429241        5.6797437469       13.5728958868
  C        10.3662562038        5.6455024329        4.0883212750
  C        10.6336700598        4.3412032495        3.3325668775
  S        10.8033848079        1.7645106875        3.4115164652
  H        11.0751974638        3.2783455826       12.8219207343
  H        10.9649349158        1.3897173480       12.5674728554
  C        12.6278624772        1.9648216871       13.7004360322
  N         8.1699639385        8.8426182950       11.8796456975
  C         7.5245629336        8.3166940098       14.0084776606
  C         6.7951882909        6.1808395447       14.8479441359
  H         6.8225232778        4.6055671790       13.3287651020
  C        11.6388862463        6.3863147553        4.2985876883
  C         9.2239696238        6.4382455533        3.3013992695
  C        11.1391751628        3.9437544334        2.1183789896
  C        11.2317224985        2.6438810763        1.9724831490
  H        13.4669259199        2.6729441113       13.6706029962
  H        12.9382117079        0.9445117941       13.7178265571
  C        12.0328553762        2.1798995893       15.1058796986
  S         8.0836477361       10.2610450817       12.5565705454
  N         7.6562833551        9.7459666295       14.0694250511
  C         7.1270709028        7.6203096786       15.1978889234
  H         6.4167082648        5.4153158538       15.6152909527
  H        11.5789617366        7.2918414504        5.0688452479
  H        12.0873735658        6.9840195131        3.4213301229
  C        12.8545021214        5.5024419268        4.8242400712
  H         8.7432526564        7.1393326325        4.0604965411
  H         9.7851744787        7.0907194627        2.4729559245
  C         8.0721760018        5.5650916421        2.8059712179
  H        11.3275911234        4.6557179678        1.3466377669
  C        11.6689014920        1.8277714535        0.7210093761
  H        11.8853403984        3.2398330847       15.1971551328
  H        11.0960926099        1.5963997349       15.2043471703
  C        12.9833308376        1.8240849891       16.2077200908
  C         6.8178797557        8.3362607297       16.4283207347
  H        12.4158281172        4.9192090801        5.6486950458
  H        13.3035548547        4.8236205558        4.0519946941
  C        14.0451197056        6.2696408488        5.3709147724
  H         7.6203610752        5.1235749575        3.7122572265
  H         8.4480270196        4.8292869263        1.9915379912
  C         7.0104851942        6.4220020706        2.2210121387
  C        11.8046561375        0.4636161000        0.7502993229
  C        12.0130498227        2.5201393133       -0.5058260310
  H        14.0622365464        2.0400470095       15.8585450546
  H        13.0469576570        0.6553511702       16.1539444098
  C        12.6797270011        2.3038333301       17.4838697843
  H         7.2590072027        9.3286649829       16.4679747353
  C         6.4430824766        7.9193488151       17.6955410598
  H        13.7273936855        6.9432827268        6.2444517840
  H        14.4142032550        6.9903375838        4.5932706155
  C        15.1575949477        5.4819235490        5.9847467980
  H         6.6938251017        7.1782994882        2.9640139808
  H         7.3807874753        6.8364033924        1.2376162860
  C         5.7979148205        5.6297893793        1.8816708898
  N        11.5271219528       -0.4869281248        1.7360960309
  C        12.1484521074       -0.2233237420       -0.4303700731
  C        12.3343434157        1.8225744585       -1.6020430588
  H        11.8849058425        3.7013209110       -0.4896145704
  H        13.3200086915        1.9281083391       18.3413488975
  H        11.7005201175        1.9217004268       17.9293628500
  H        12.4915879591        3.4375002417       17.6524011790
  S         6.1495706388        6.2614435466       18.1884045017
  C         6.3536702563        8.8827741290       18.7960887353
  H        14.7915580893        4.9004220260        6.7420379993
  H        15.5850253563        4.7916486751        5.3185571397
  C        16.2951200661        6.3709607937        6.4991763944
  H         5.6892959875        4.6016037105        2.4431663618
  H         5.8327066735        5.3924589946        0.7473733606
  C         4.5577019158        6.4493530881        2.0365550913
  S        11.6122195036       -1.9575286528        1.2126625610
  N        12.0987351764       -1.6309268173       -0.3167569866
  C        12.4797657653        0.3759241763       -1.6672527811
  H        12.6127707917        2.5109559324       -2.4651790362
  C         5.7851375327        7.0044344380       19.7984704370
  N         5.9482070091        8.2739845154       19.8729926768
  O         6.8835602511       10.0220514727       18.6144326427
  H        16.6539454669        6.9997449829        5.6281954178
  H        15.8374456983        6.9728835098        7.3278740305
  C        17.4973432691        5.5355047118        7.0628617262
  H         3.7490217540        5.8398364387        1.6807967288
  H         4.4232654117        6.6935237859        3.0564036578
  C         4.4367834473        7.6862921692        1.1240374693
  C        12.8988413804       -0.4539764085       -2.7113309695
  S         5.6900349048        6.0716759385       21.3435134991
  C         5.9236444185        9.1516658980       21.0352651141
  H        17.1321458538        5.2907115824        8.0507662667
  H        17.5679119833        4.5597923444        6.5404697699
  C        18.8148061474        6.2799212517        7.1627913230
  H         3.8470885414        7.2669911181        0.2143053223
  H         5.3853956270        8.0988406732        0.5604824427
  C         3.5865489028        8.8138466974        1.7421999614
  H        12.6539790181       -1.6124242097       -2.6367316869
  C        13.3533924118       -0.3210889666       -4.0308940015
  H         5.3048144605        8.7356633437       21.8491992340
  H         5.4876890041       10.1321422123       20.8082293009
  C         7.3529820141        9.3379572128       21.6680749985
  H        19.3442792993        6.1251080866        8.0593761423
  H        18.6100636224        7.2290293543        7.1896427194
  C        19.7829861458        5.9623796720        6.0446646374
  H         2.6268771554        8.4705840830        2.1411729209
  H         4.0974741749        9.1262277598        2.7280804760
  C         3.6294952787       10.0053570581        0.9126973207
  S        13.7415189200        1.1334428723       -4.8706332309
  C        13.3843838239       -1.4938393762       -4.9145113918
  H         7.9320971907        9.8974857105       20.8534274777
  H         7.7365426718        8.3582239109       21.8454041340
  H         7.2237583984       10.0279294323       22.5316822660
  H        20.9003194600        6.3134894530        6.2934543432
  H        19.8315397034        4.8320373098        5.8668247574
  H        19.5749827887        6.3156905921        4.9796584826
  H         2.8363609584       10.8037817816        1.1849313878
  H         4.5600495550       10.6701493325        1.0064204292
  H         3.4465821171        9.8603382521       -0.2175082423
  C        13.7795529438        0.2087005421       -6.3187215040
  N        13.6458935376       -1.1941753557       -6.1843149555
  O        13.0491752420       -2.6054830139       -4.5322798104
  S        14.0964459840        0.8056616612       -7.9304473527
  C        13.6797122497       -2.1483365716       -7.2385601225
  H        14.3255437928       -2.9021098632       -6.9176500471
  H        14.2922046469       -1.7034735384       -7.9797960376
  C        12.3178854764       -2.4123324778       -7.7532254901
  H        11.5833193562       -2.6774596349       -6.9785118290
  H        12.1755881601       -3.2156126261       -8.4843080837
  H        11.6480987621       -1.7162756757       -8.2463054419
