352
 i =   132700, time =    66350.000, E =        99.7227222924
  H         9.9156546244        5.3717942612       32.6581593232
  C        10.9192382033        5.8324614153       32.4301529327
  H        10.8399292793        6.9094084014       32.4944984608
  C        11.5158100867        5.4508166261       31.0918148394
  C        11.8402232628        5.3816343123       33.5606074650
  C        10.4958247917        5.6146121451       29.9454572726
  H        12.1589289047        6.2771150881       30.9891110241
  H        11.9324438498        4.4168688767       31.0482710473
  H        11.6938188571        4.3642465968       33.9040416774
  H        12.8955709515        5.5248781716       33.2032980705
  H        11.7859058228        5.9799158905       34.4932626408
  C        11.2815847697        5.1477081061       28.6912611881
  H        10.2169432481        6.7171879753       29.9386558861
  H         9.5485978900        5.0118986177       30.0913135908
  C        10.7497740942        5.7074369947       27.4624303782
  H        12.2773456334        5.5012371090       28.8117482104
  H        11.3713142328        4.0338494690       28.6033790679
  C         9.4798009055        5.0463772121       26.9123741587
  H        11.4974868494        5.6566434491       26.6788851925
  H        10.5721049709        6.7839169273       27.5111085718
  C         8.3393613293        5.9930880752       26.3887996328
  H         9.8127094352        4.2904859621       26.2096970116
  H         9.1085751970        4.4087889098       27.7408806530
  C         7.1696150012        5.3354730062       25.6165962897
  H         7.9546023865        6.5725288225       27.2690759249
  H         8.8323393273        6.7641302896       25.8266480200
  C         6.8080792507        3.9630598160       26.2741927733
  C         7.6137003925        4.6083962518       24.3424400553
  C         6.0599793716        6.3111297150       25.4559462149
  C         7.1111130617        2.8557426369       25.4580256972
  C         6.2693694480        3.5230729750       27.5120614599
  C         7.5615723108        3.2562866646       24.2031102357
  C         8.0940454429        5.2049185969       23.1817580268
  H         6.3159933146        7.1676821298       24.8871173308
  H         5.7907531448        6.8025342804       26.4558958419
  C         4.9114411500        5.7075799961       24.7211099157
  S         6.8384344947        1.3605707141       26.2356093720
  C         6.2913830853        2.1702546663       27.6133722589
  H         5.9508175650        4.2487343343       28.2383080370
  C         8.0635708021        2.6885728427       23.0751377167
  H         8.2093104098        6.2742065747       23.2485813778
  C         8.5637072987        4.6924239897       22.0294213041
  H         5.1381050436        5.5073415718       23.7448714351
  H         4.7448353708        4.6623234390       24.9966432702
  C         3.6546420947        6.4696452522       24.8092779553
  C         6.0684654788        1.3974967215       28.8688287143
  C         8.6091071848        3.3091809330       21.9482827949
  H         8.2449794224        1.6233463218       23.1071820355
  C         9.0247019015        5.0738755417       20.8147142021
  H         3.0142871177        6.1307525603       24.0642584862
  H         4.0052599929        7.4711753125       24.6129549858
  C         2.9213375329        6.5096522839       26.1043129428
  C         6.0995456293        0.0090305275       29.1066723205
  C         5.7260133954        2.1563997757       30.0935002072
  C         9.1127484274        2.6400358106       20.7396481673
  C         9.4222244563        3.9579573123       20.0765513543
  S         9.2394785301        6.5942464611       19.9834001251
  H         1.9088543370        6.9589854955       25.8519613764
  H         3.3586026684        7.3549120654       26.7369914439
  C         2.8067453619        5.2474095640       26.9764995095
  N         6.5307282574       -0.9416854226       28.2019814510
  C         5.7835261291       -0.6272029668       30.3211150093
  C         5.4087442840        1.5556250385       31.3013042748
  H         5.5608344836        3.2684646564       30.0883106844
  C         7.9884306834        1.7368210981       20.0135464633
  C        10.3665602302        1.7875615770       21.0598903254
  C         9.8221591349        4.3512220076       18.7429489224
  C         9.7224765620        5.6899362349       18.5494038377
  H         2.1894601791        4.5724808959       26.3942400599
  H         3.7270999294        4.7903930166       27.1301482200
  C         1.9693530957        5.3346645087       28.2776954272
  S         6.4178094365       -2.4334748250       28.7918905115
  N         5.7900259834       -2.0056354839       30.2249573207
  C         5.3882653959        0.1162674029       31.4742976120
  H         5.2335902415        2.2480355987       32.1540401360
  H         7.6059230702        0.9046932670       20.6384409776
  H         8.3186515921        1.3265969721       19.0374165430
  C         6.7877769412        2.6296470412       19.5898733375
  H        10.6514866059        1.2792943903       20.1528614659
  H         9.9722819744        1.0761138565       21.8243127650
  C        11.4614494577        2.6127388219       21.6925461639
  H         9.9491348310        3.5821193262       18.0202375416
  C        10.1277336121        6.4581529480       17.2892811422
  H         1.9727310795        4.3525288706       28.6721132820
  H         1.0289555503        5.7189590396       28.0786164278
  C         2.5403019800        6.1760058825       29.3723091575
  C         5.0805365892       -0.6033320273       32.7060605139
  H         7.0922266283        3.3743680324       18.8951158450
  H         6.2647713204        3.2560569764       20.2905130254
  C         5.5942207304        1.8939334250       19.0296924465
  H        11.1580723805        3.0654741705       22.6770864453
  H        11.7157555781        3.5339666875       21.1927686622
  C        12.7262160272        1.7646103364       21.8812262720
  C        10.1484367389        7.8936676635       17.1801982747
  C        10.2734823773        5.7055214681       16.0192855493
  H         2.9534652054        7.1757238108       29.0311533439
  H         1.7747384435        6.5500736569       29.9497279282
  C         3.6440880681        5.6022578954       30.2590782226
  H         5.3670624685       -1.6593911394       32.6582570843
  C         4.7359008862       -0.1234030043       33.9716683847
  H         4.9244179193        1.7366314211       19.8241459897
  H         5.9629075358        0.9889499388       18.6352809912
  C         4.8584872344        2.7071214503       17.9055074027
  H        12.5227997604        0.7421655005       22.3135804796
  H        13.2818246858        1.6701773491       20.9591719565
  C        13.7020217641        2.5136900478       22.8158053343
  N         9.8684228739        8.8245981686       18.1876844539
  C        10.4673454868        8.5396553543       15.9440648224
  C        10.6985923500        6.3463723732       14.8448676483
  H        10.2605107226        4.6176252908       16.0306823488
  H         4.1114848260        6.3972322117       30.7681703600
  H         3.3242518202        4.8963341068       31.0141812092
  H         4.3169985077        5.0790853955       29.6286931108
  S         4.3763232876        1.4767129436       34.4057703720
  C         4.6917898685       -1.1089556148       35.0887509960
  H         5.0047805563        3.7332500476       18.1830895209
  H         5.2525520071        2.6407976294       16.9141508912
  C         3.3441096814        2.3653093782       17.9016893274
  H        13.3788401724        2.4849281292       23.8380980840
  H        13.7365906202        3.5247753123       22.4775776891
  C        15.0341229459        1.8244805207       22.7803315390
  S         9.9957601739       10.3264974307       17.5980416966
  N        10.5572360919        9.9381342793       16.1264316997
  C        10.6957391680        7.8438156949       14.7408315947
  H        10.7149248160        5.8000854658       13.9394106975
  C         4.2180037684        0.8800999964       36.0821394864
  N         4.3026021067       -0.5092168886       36.2154220331
  O         4.8559247421       -2.3643052659       34.9195132012
  H         2.8455904388        3.0944304723       17.2509361406
  H         2.8239401711        2.3218462805       18.8227292121
  C         3.1516710077        1.0135553239       17.2981097615
  H        15.4141790504        1.6283058700       23.7586276562
  H        14.9377984221        0.9271617945       22.2788949350
  C        16.0145082831        2.6461394063       21.9095921960
  C        10.8769031317        8.5316634879       13.5032957548
  S         3.8952023632        1.9277659962       37.4781779738
  C         4.2548556775       -1.1869494477       37.4982103809
  H         2.4441942507        1.0190557841       16.5008465530
  H         4.0782460626        0.6708399995       16.8573528650
  C         2.7137368665       -0.0671054431       18.2781944591
  H        16.1066948195        3.5941869382       22.3989488133
  H        15.5319680378        2.7783867037       20.9023359571
  C        17.3562227977        1.8936881457       21.6591075544
  H        10.3742241950        9.4527721976       13.4834953280
  C        11.5159557569        8.3358130980       12.3444090234
  H         3.8526749752       -0.5222205346       38.2813522878
  H         3.5400191564       -1.9829960047       37.4697051346
  C         5.6879427412       -1.6173381555       37.9217004837
  H         1.6965783494        0.1944986428       18.7363269061
  H         3.3696915131       -0.0626029612       19.1982640084
  C         2.7706184440       -1.4808051662       17.7031618361
  H        17.3154595609        0.9821422707       21.0226077097
  H        17.9378220418        2.5535943185       20.9888032168
  C        18.1872584080        1.7398196402       23.0114086852
  S        12.1939609435        6.8693175683       11.8927313682
  C        11.5852661545        9.3769876402       11.3312814453
  H         5.6804732648       -1.8016436398       39.0082271271
  H         6.0603387250       -2.5828129746       37.4610823245
  H         6.4341268139       -0.8541275032       37.6596463411
  H         3.4428580836       -1.5158419125       16.9121926384
  H         1.8564340129       -1.8345764617       17.2325044195
  H         3.1581090522       -2.2188695108       18.3547730981
  H        17.5701690257        1.1566630706       23.8121899704
  H        18.4925987186        2.6941261805       23.4140323667
  H        19.0448685918        1.0983680524       22.8531090293
  C        12.5022469199        7.6580262182       10.2783150993
  N        12.1922558077        8.9412282369       10.2115725804
  O        11.0632813885       10.4782189625       11.4552276581
  S        13.1915858208        6.8093513178        8.8678390618
  C        12.2087501620        9.7213127549        9.0054196614
  H        12.5495936940       10.7181221100        9.1701117694
  H        12.9752747486        9.3170310168        8.2484057169
  C        10.8918194978        9.6088832531        8.3228952272
  H        10.1059988337        9.8966940459        9.0312489722
  H        10.8467420919       10.1678632824        7.3863904748
  H        10.6095651531        8.5774885260        7.9789329926
  H         1.7860168777        1.8989696725       12.3072384488
  C         2.8095496330        2.2695214399       12.2210993543
  H         3.3419025656        1.4047199429       11.8875903353
  C         2.8748282282        3.2519248363       11.1038460921
  C         3.2372061441        2.8652921287       13.5620199778
  C         4.2616817917        3.2969455311       10.4278899880
  H         2.5375865898        4.2925461977       11.3197418457
  H         2.1747753663        2.9189807196       10.3774636939
  H         4.1179226343        3.4717143710       13.3906271000
  H         3.4146487149        2.1235144659       14.3632282803
  H         2.5236611637        3.5359422571       13.8642941926
  C         4.6359501424        1.9529675233        9.7631709045
  H         4.2695201548        4.1323374711        9.7447174373
  H         4.9770211341        3.5245266206       11.2447930536
  C         5.3187458631        2.0122305815        8.3554011221
  H         3.7100528092        1.4066992489        9.5704306108
  H         5.1546292870        1.2978718048       10.4522106556
  C         6.5926882484        2.7416534246        8.3570568130
  H         4.7729739181        2.5752902129        7.5924847018
  H         5.4776998759        1.0277162173        7.8422177946
  C         7.7727643190        1.9704566786        9.0758024754
  H         6.9829665786        2.7608681746        7.2965924315
  H         6.3896347186        3.7817799919        8.7181947914
  C         9.0386858922        2.8447383936        9.1644097132
  H         8.0321249125        1.1460558909        8.4570947694
  H         7.6165328950        1.7157846433       10.1217417456
  C         8.8302484145        4.2107351417        9.8532991175
  C         9.5519144117        3.4968319360        7.9289746273
  C        10.2480634233        2.1319919543        9.9103063129
  C         9.1589651196        5.2520491362        9.0428129930
  C         8.1964056141        4.6752953724       11.0463027104
  C         9.5880170726        4.8065727628        7.7897249070
  C        10.0807793814        2.7891927178        6.8280995672
  H         9.8788699082        1.5875449782       10.8299037862
  H        10.6952615177        1.4460138129        9.1858130671
  C        11.3589065732        3.0266755486       10.3211216444
  S         8.8427047043        6.7727630569        9.8076293723
  C         8.2052677862        6.0460791754       11.1639885804
  H         7.9302848552        3.9321921348       11.8206446852
  C        10.0931815896        5.3595852645        6.6265021332
  H        10.1282090369        1.6935814691        6.8471974385
  C        10.6043674662        3.3019542976        5.6814741060
  H        11.0657314634        3.9207135873       10.8428411946
  H        11.9331625518        3.2199867926        9.3574244000
  C        12.2348551723        2.3558662661       11.3263103695
  C         7.7548098577        6.7825942912       12.4000838895
  C        10.6154674568        4.6282977684        5.5891309413
  H        10.1347282046        6.4841407744        6.5493535487
  C        11.0428668323        2.8359495331        4.4458361040
  H        13.2197977798        2.6685290574       11.0960541844
  H        12.1730425351        1.3079226121       11.2493539594
  C        11.8444307936        2.9056189503       12.7224213172
  C         7.6273180977        8.1697121156       12.5586283964
  C         7.4599222696        5.9219011664       13.5563665115
  C        11.0175193564        5.2501147825        4.2558751089
  C        11.2364320998        3.8941896849        3.5473863496
  S        11.2633875735        1.3133462748        3.6786355207
  H        12.3919882583        3.7688933140       12.9484683331
  H        10.8165349461        3.3576426099       12.6887430367
  C        11.8134120519        1.8901948731       13.8914191563
  N         7.7233038478        9.0104530103       11.5067014327
  C         7.4995667875        8.7910269492       13.8080802214
  C         7.2676969227        6.5311462969       14.7866572791
  H         7.2242491373        4.8868366205       13.5373395423
  C        12.2963601494        6.0352756389        4.3289102436
  C         9.9221216074        6.1725325142        3.6921604318
  C        11.4777385132        3.4257629606        2.2337722014
  C        11.5791349037        2.0474066990        2.1357418082
  H        12.2401088714        0.9517104400       13.6745468458
  H        10.7700058768        1.7633700145       14.1108382344
  C        12.4937121002        2.4581784967       15.1444960405
  S         7.6728610818       10.5058379929       12.1076326803
  N         7.4642549955       10.1534195801       13.7270584405
  C         7.3403084931        7.9680570055       14.9317327022
  H         6.8733827742        5.8759407358       15.5256989057
  H        12.3055424288        6.7311697912        5.1546013151
  H        12.4016375339        6.7366877808        3.5251329619
  C        13.4899351416        5.1493423270        4.6501474635
  H         9.7368895247        6.9156406296        4.4764003858
  H        10.2445564439        6.5999256722        2.8402092997
  C         8.6638703782        5.4594556829        3.3453247819
  H        11.5761147142        4.1316208836        1.4198424032
  C        11.8788927596        1.2246718791        0.8977916321
  H        13.5846008565        2.3780067273       14.8848961185
  H        12.2575402406        3.5301915036       15.3976110355
  C        12.3427290498        1.6229850969       16.4376484673
  C         7.0016236373        8.7044441932       16.1709613759
  H        13.3192783027        4.3531444757        5.3995947505
  H        13.7969965523        4.5379327668        3.8160351301
  C        14.7185829944        5.9392266966        5.1748628844
  H         8.2196059841        4.9033448922        4.1516997978
  H         8.8225411145        4.7808037789        2.5762168495
  C         7.6239397648        6.3633493772        2.6968324239
  C        11.8964886709       -0.2053052582        0.8233556733
  C        12.0091072415        2.0098482873       -0.3570367206
  H        12.7375426024        0.6450551956       16.2385780377
  H        11.2552280277        1.4376198598       16.5540168527
  C        12.9536186555        2.0487946603       17.7855629959
  H         7.2716120938        9.7380086742       16.0285511762
  C         6.6909169601        8.2963217360       17.4540575397
  H        14.4529880289        6.5506595724        6.0183206737
  H        15.1344274936        6.5466578741        4.3791342040
  C        15.7388643382        4.9572806127        5.7030773217
  H         7.3307229256        7.0131398276        3.4796449561
  H         7.9943908815        6.9979643815        1.8729746195
  C         6.3690045279        5.5935184486        2.1379274502
  N        11.5525343203       -1.1564165592        1.8088696340
  C        12.1296699210       -0.8725074154       -0.4010735635
  C        12.1893333440        1.2894181432       -1.5553855013
  H        12.2010593393        3.0543680039       -0.3753931707
  H        13.8249714418        2.6900557789       17.6142425967
  H        13.2471071791        1.1920648873       18.5181465788
  H        12.4080453854        2.7321049054       18.3886439898
  S         6.3332398844        6.6454560516       18.0255960519
  C         6.7071165884        9.3412193597       18.5071172822
  H        15.2495385313        4.2847141732        6.5007850277
  H        16.0318015096        4.3324567497        4.9056034016
  C        16.8833534787        5.7582814089        6.2804327313
  H         5.7458339599        5.2251656325        2.9582597869
  H         6.7212894124        4.6945925062        1.6098204884
  C         5.4534181422        6.3707091867        1.1728806008
  S        11.7839720786       -2.6098250433        1.2488238651
  N        12.1318594893       -2.2527466906       -0.3051688871
  C        12.3571240620       -0.2136385690       -1.6298587174
  H        12.2830086087        1.7913289030       -2.4394386954
  C         6.0363294377        7.3769258703       19.6128635953
  N         6.2490389779        8.7270660235       19.6950205976
  O         6.9220839492       10.5284212421       18.3314328642
  H        17.5157672324        6.1099633993        5.4420674026
  H        16.5457358620        6.6320911609        6.7398800507
  C        17.7612093644        4.9296826831        7.1195465626
  H         6.0024130915        6.9258053096        0.4633310815
  H         4.7688168509        5.6398864363        0.6220346250
  C         4.4440498070        7.2779843462        1.9129536339
  C        12.6531191087       -1.0273665811       -2.7854512827
  S         5.7331687626        6.5694781665       21.1675326844
  C         6.2058456579        9.4499953706       20.9939959863
  H        17.2454292355        4.5088882683        7.9976623162
  H        18.0077309140        4.0576451267        6.4450050094
  C        18.9868753529        5.7688675720        7.5183141352
  H         4.7730745842        7.4227086174        2.9984924976
  H         3.5308081687        6.7174551772        1.9650411685
  C         4.2473115503        8.5349912181        1.0732341487
  H        12.3605716128       -2.0131885640       -2.6638723087
  C        13.1089721013       -0.6540081851       -4.0728291804
  H         5.4383986828        9.1298828690       21.6737902759
  H         5.9947544268       10.5104744043       20.6923885481
  C         7.6472370375        9.4933655983       21.5740788107
  H        19.5653314473        5.1428189783        8.2481403568
  H        18.6026154609        6.6514741953        8.0415177433
  C        19.8814295922        6.2011477885        6.3848201971
  H         5.2677947240        9.0925435880        1.1248455525
  H         3.9415147129        8.3422188354        0.0033912432
  C         3.2043553227        9.4713268412        1.6753168460
  S        13.5891472369        0.9351557619       -4.6377916291
  C        13.1941103787       -1.7294130224       -5.0506830165
  H         7.7830854007        8.9857930641       22.5169502085
  H         7.9828122908       10.5438177779       21.7073663517
  H         8.3299621031        9.0042616403       20.8166771194
  H        19.8390142474        5.4220216995        5.6859379495
  H        19.4872747430        7.0836288955        6.0238601586
  H        20.9472640768        6.2844621834        6.6564123286
  H         3.6593320839        9.7711488508        2.6061209561
  H         3.0711386809       10.2369915033        0.9763925370
  H         2.2798769517        8.9558834417        1.8342420056
  C        13.9003746840        0.1365865244       -6.1633327413
  N        13.6408068226       -1.1861106989       -6.1840070889
  O        12.8951861200       -2.9703751870       -4.8780375951
  S        14.5495960300        0.9702866856       -7.5981979711
  C        13.6174129153       -1.9159089068       -7.4793613887
  H        13.7885984486       -3.0266639743       -7.4404813393
  H        14.4693145855       -1.5623453266       -7.9852547531
  C        12.4213777455       -1.4851253813       -8.3261323665
  H        12.0469250097       -2.3866351160       -8.7352083468
  H        12.7679646470       -0.8879865658       -9.1765623026
  H        11.5533325787       -1.0452515299       -7.7976054878
