352
 i =    65400, time =    32700.000, E =        99.8797235078
  H        12.6572253412        6.1777576244       32.3822232999
  C        11.5929250443        6.1218628287       32.7060318959
  H        11.3620689857        5.1658364799       33.1514347108
  C        10.6829452289        6.4461780736       31.5203704296
  C        11.5793869611        7.0132474665       33.8743407003
  C        10.8194324173        5.6158131714       30.2373230740
  H         9.6108923670        6.3132559359       31.8868869129
  H        10.9432812750        7.5017143018       31.2856927292
  H        12.0936995557        7.9644238177       33.5587546465
  H        10.5735576278        7.3229304618       34.2488858953
  H        12.1364754134        6.5606439642       34.6803104580
  C        10.0749628399        6.2544785678       29.1157324604
  H        10.4060254333        4.6469271503       30.4214013976
  H        11.9212918231        5.4276720307       30.1080009671
  C        10.5782183827        5.7968709774       27.6825002918
  H         9.0061948760        6.1490990954       29.2421408511
  H        10.3097144783        7.3687072745       29.2210009330
  C         9.5444837527        4.9194814969       27.0194671706
  H        11.5295006087        5.3032087730       27.8870508070
  H        10.7215782006        6.6014371522       27.0345836738
  C         8.4150675065        5.8633803206       26.5082799441
  H         9.8876047877        4.4282600250       26.0653024905
  H         9.1724670611        4.0943980163       27.6155421973
  C         7.3134799987        5.2077933994       25.5494739988
  H         7.9259724207        6.4853203970       27.2880321236
  H         8.8925344197        6.6474637815       25.9069517710
  C         6.9441852947        3.8454070216       26.1934894394
  C         7.8423663910        4.5233959575       24.3258541422
  C         6.1252508780        6.1173488322       25.2384387382
  C         7.0304042909        2.7595701317       25.3014857462
  C         6.4025672315        3.4652747356       27.4019593018
  C         7.6055347536        3.2383406976       24.1381422575
  C         8.4281400831        5.1948465847       23.1896154386
  H         6.4314339636        6.6975057257       24.3462615949
  H         5.8415874831        6.8822289043       26.0670931363
  C         4.8010013071        5.4775807045       24.8999369408
  S         6.6263291897        1.2405764409       25.9053007416
  C         6.3789278108        2.0935270326       27.4771561270
  H         6.2746639083        4.1912130425       28.1588315645
  C         8.0694087756        2.6192086780       22.9928644737
  H         8.4344060207        6.3114075692       23.2126862503
  C         8.8145345565        4.6058568535       22.0811979665
  H         5.0305722170        5.0093990492       23.9544246835
  H         4.5577340173        4.7171628665       25.6334549498
  C         3.6977154931        6.3664070705       24.6088275827
  C         5.8803363053        1.4112846324       28.7160751648
  C         8.7443523658        3.2758680990       21.9202927224
  H         7.9899276351        1.5457743718       22.9433038850
  C         9.0987776750        5.0683845072       20.8244103112
  H         3.1138700653        5.8614394576       23.8526086266
  H         4.0120097475        7.2925909339       24.1565007146
  C         2.8278791926        6.6818934379       25.8011124052
  C         5.9416311697        0.0342364161       29.0062590030
  C         5.5328678673        2.2840032074       29.9141444245
  C         9.1631443429        2.6950484786       20.6473437558
  C         9.3934058223        4.0394528182       19.9807753536
  S         9.2247332676        6.6221605902       20.1224183111
  H         2.1315874889        7.5266495230       25.7323127139
  H         3.5145727014        7.1006920314       26.5302569023
  C         1.9994288580        5.4929615764       26.3392411591
  N         6.2338565373       -0.9830797073       28.0632702934
  C         5.6610270866       -0.5269711457       30.2207579109
  C         5.2582161494        1.7272126204       31.1844287263
  H         5.5776183223        3.3774256422       29.8112965768
  C         7.9583681595        1.9608002267       20.0012862501
  C        10.3913229452        1.7731553368       20.7060198284
  C         9.8075255386        4.4924073986       18.7181692514
  C         9.6649609967        5.8883077644       18.6503516628
  H         1.2402138094        5.3266822306       25.5955798196
  H         2.4180686302        4.4945688290       26.4069512797
  C         1.2444133305        5.8557011252       27.6039835898
  S         6.0770937624       -2.4660689771       28.7189730709
  N         5.5868259292       -1.9569947798       30.2033855408
  C         5.3653196973        0.2781612485       31.3249952816
  H         5.0170708438        2.3426490694       32.0385959264
  H         7.6231175715        1.1795952880       20.7362365043
  H         8.1851717419        1.5068451631       19.0732207050
  C         6.6843085897        2.7628084031       19.6634515836
  H        10.4587038887        1.3595978921       19.6843366803
  H        10.2022188805        0.9263749971       21.4019552307
  C        11.6539083592        2.5285426179       21.0946287696
  H        10.0716365679        3.7746607814       17.9962770370
  C         9.8498407186        6.7288253743       17.4022992847
  H         0.4041675287        5.2221702822       27.7855742628
  H         1.0951906955        6.9245907758       27.4395476992
  C         2.2132438350        5.7686360905       28.7442917493
  C         5.1831724440       -0.3890431425       32.5674376772
  H         6.9947570311        3.4791064733       18.9062419824
  H         6.2830435435        3.2287408968       20.5539637026
  C         5.5482318776        1.9685365926       19.0746048960
  H        11.6354450937        3.2349627461       21.9478125526
  H        11.9701179559        3.0543677449       20.2475144450
  C        12.7242227227        1.4704205720       21.3340649592
  C         9.8610650052        8.1647947283       17.2938678159
  C         9.9808602675        5.9972049527       16.1147416024
  H         2.8455689367        4.7888632652       28.9154222349
  H         2.9216516289        6.6053072963       28.4453377637
  C         1.5742730035        6.1439251522       30.0780368660
  H         5.4747611639       -1.4286351871       32.5489147458
  C         4.8932355597        0.0230173663       33.8249327862
  H         5.3121573691        1.1900463000       19.8003477336
  H         5.8811449020        1.4681272098       18.1656053750
  C         4.4252697717        2.9247706876       18.7078027263
  H        12.4961252784        0.9201536054       22.3163239533
  H        12.7255785114        0.7634349521       20.5154711193
  C        14.1994755304        2.0462684271       21.3808038403
  N         9.5457433209        9.0012464719       18.3270965666
  C        10.1477646677        8.8340814491       16.0607888797
  C        10.2838155061        6.6665473744       14.9314992540
  H         9.8609723217        4.9096930873       16.0727174825
  H         1.1922780839        5.1778438434       30.5170089206
  H         2.3042071935        6.6127245843       30.7351318032
  H         0.7914322880        6.9719747043       29.8042210919
  S         4.8183159355        1.6179842080       34.3907439929
  C         4.6964382453       -1.0180830898       34.8451196898
  H         4.1643951895        3.4381600112       19.6583440355
  H         4.8365448338        3.8078057802       18.1026963638
  C         3.1599528266        2.4046502186       17.9796755203
  H        14.2735083441        2.9090380183       20.7617491153
  H        14.8202596781        1.2275679176       21.0052257803
  C        14.6136091886        2.4159286905       22.8365991601
  S         9.5213223878       10.5466242884       17.7681114622
  N         9.9609266440       10.1871163158       16.2370288852
  C        10.4399177644        8.1107657071       14.8651137796
  H        10.4093026025        6.1286419113       14.0222492152
  C         4.6048831078        0.8713206748       35.9585933806
  N         4.4387974982       -0.4835019575       36.0133317220
  O         4.6322283339       -2.2083387780       34.5068733421
  H         2.8278341315        3.0875511722       17.2388036526
  H         2.3214867522        2.3548274870       18.6510740722
  C         3.3516710559        1.1391128261       17.1836025076
  H        13.7402218076        2.9925529179       23.2343033517
  H        14.8217015249        1.5309263578       23.4825576626
  C        15.7905910678        3.3899667950       22.8204791868
  C        10.6549328178        8.9131236323       13.6485481852
  S         3.9832307741        1.6558369014       37.3895225563
  C         4.2111556635       -1.2961802194       37.2478762272
  H         2.6574706252        1.0828596563       16.3969909276
  H         4.3487929457        1.1492994462       16.6461464767
  C         3.2577091309       -0.2007930127       17.9276225687
  H        15.9372663480        3.7473404482       23.8293670389
  H        15.5233567939        4.2518311619       22.1113591544
  C        17.0964445908        2.7425049940       22.1880377572
  H        10.3877359320        9.9424549848       13.7217107864
  C        11.0637976081        8.4866151192       12.4099588204
  H         3.3874968396       -0.9250012436       37.8492417191
  H         3.8002539043       -2.3355052111       37.0385011922
  C         5.5864434614       -1.3869618455       37.9825577301
  H         3.5923451480       -0.0210638923       18.9240687856
  H         3.8386492403       -0.9348791666       17.4695623712
  C         1.7802821166       -0.6390931215       18.0482220744
  H        16.8135404705        2.1259702118       21.3150750555
  H        17.7699929963        3.5870109966       22.0156499637
  C        17.7164546371        1.7587921846       23.1105751106
  S        11.5611675164        6.9046587911       11.8937645909
  C        11.2753170749        9.5405471257       11.4373857343
  H         5.6597253171       -0.6250311658       38.7645124091
  H         5.8192358223       -2.4143090201       38.2794127172
  H         6.3229755003       -1.1086183585       37.2173765150
  H         1.5988321404       -1.1184745552       19.0724112854
  H         1.6488072794       -1.5019364189       17.3527461588
  H         1.0679491278        0.1299774440       17.7766174182
  H        17.2928772959        0.7771249983       23.1384194252
  H        17.6866257627        2.1244287928       24.1788822094
  H        18.8322725972        1.6243574203       22.9279742081
  C        12.1241573441        7.7400848567       10.4323079981
  N        11.8643940908        9.0863022537       10.3130196294
  O        11.1496280324       10.7748355681       11.6702691944
  S        12.8392182549        6.9355502004        9.0079673873
  C        12.0708195757        9.9931809293        9.1508135274
  H        12.3577428345       11.0155459175        9.5118003146
  H        12.7233171465        9.7629470038        8.3580738690
  C        10.7857663476       10.1741210956        8.4096654855
  H        10.4989761799       11.1609776023        8.0706723040
  H        10.7843921265        9.5272901221        7.4886859058
  H        10.0221573013        9.8269751978        9.0233035554
  H         4.1933250488        1.3068463076       12.4523208533
  C         3.6224498981        2.2298066478       12.3868577019
  H         4.2886726266        3.0436119913       12.6465068416
  C         3.0249095082        2.5665547043       10.9670152712
  C         2.5018795085        2.2555859734       13.4283653021
  C         4.0067009263        2.8489312316        9.8123347237
  H         2.3855237635        3.4036249979       11.0643389275
  H         2.4734638137        1.6923407292       10.5825168387
  H         2.9408109992        2.0615508154       14.3655431344
  H         1.6848143222        1.5716119414       13.2161425829
  H         2.2269628272        3.2045471223       13.7318077516
  C         4.8576679926        1.5753095755        9.3316807086
  H         3.4982690366        3.2746835643        8.9827868633
  H         4.5328925707        3.6971727321       10.3157246510
  C         5.6596471416        1.9031178482        8.0344560127
  H         4.2546930847        0.7320067963        9.0016404221
  H         5.6220639467        1.2566107509       10.0804881730
  C         6.7885157053        2.9814173334        8.3027507922
  H         5.0375335413        2.2131720004        7.1845472504
  H         5.9812220785        0.9921013193        7.5927615237
  C         8.0238733648        2.1433201241        8.9101793182
  H         6.9587921314        3.5118896289        7.3284296683
  H         6.3567227072        3.6445182460        9.0764551139
  C         9.2149664867        3.0941258262        9.1966715559
  H         8.3403082665        1.3193706846        8.3100603335
  H         7.7607649402        1.6351729541        9.7838647578
  C         8.7573959544        4.3504661869        9.8620529818
  C         9.5630660617        3.8376983824        7.9239365636
  C        10.3365406787        2.4206936760        9.9929968691
  C         8.9029156264        5.4674118786        9.0972402957
  C         8.1777787284        4.6772715028       11.1007357908
  C         9.3954319479        5.1434929556        7.8479972904
  C         9.9392865917        3.2593291134        6.6909365079
  H         9.8294419034        2.1427169272       10.9280394895
  H        10.5998126904        1.5199604485        9.4560150642
  C        11.6127942938        3.1876095545       10.1001321207
  S         8.4061510967        7.0058780649        9.9276931520
  C         8.0334611392        6.0120579814       11.2705585057
  H         7.9343419580        3.9188600614       11.8193605225
  C         9.7268624214        5.8138916840        6.7234248274
  H         9.9758437103        2.2200571660        6.7256493432
  C        10.3029628447        3.9371751853        5.5851864154
  H        11.4543761046        4.2762820845       10.0958120626
  H        12.1420978090        3.0015275834        9.1346092703
  C        12.6159298138        2.6980612288       11.2576786136
  C         7.5196729388        6.5780707448       12.5124230225
  C        10.2264392707        5.2622603145        5.5614972133
  H         9.7328274249        6.8512881019        6.8361765937
  C        10.6368418522        3.5962307403        4.2813850271
  H        13.6358796754        3.1210089404       10.9798731609
  H        12.7997734198        1.6482635698       11.1139698313
  C        12.1521780233        3.0568016248       12.6878356691
  C         7.4395061766        8.0043054734       12.7706152312
  C         7.0219336117        5.6683504709       13.5912673787
  C        10.6006686144        6.0521861058        4.3041224861
  C        10.9125794537        4.6991452436        3.4897458160
  S        10.7746565864        2.0531127907        3.4889406372
  H        12.7866894976        3.9171046114       12.9849024904
  H        11.1746070905        3.4434881229       12.5865931972
  C        11.9919162215        1.8856709606       13.6661238883
  N         7.8542511846        9.0908469483       11.9552527009
  C         7.0175084004        8.4689637004       14.0321799122
  C         6.7215882622        6.1955918338       14.8507652571
  H         7.0940269007        4.6043330210       13.5517903989
  C        12.0051680505        6.8018446598        4.5459790555
  C         9.4820803655        6.8735562617        3.5717742278
  C        11.1662757661        4.2960161868        2.1922461212
  C        11.1089493563        2.9143799980        1.9982285088
  H        12.8908731636        1.3161976552       13.6178645475
  H        11.1083676376        1.3953746535       13.2414870699
  C        11.7972768836        2.3632017938       15.1249145422
  S         7.6230879547       10.4594009003       12.7950647490
  N         7.0224852666        9.8085356400       14.1709434478
  C         6.7248287903        7.6543012209       15.1624519040
  H         6.5866765199        5.5220614231       15.6617891155
  H        11.7859277825        7.2931227345        5.5027134483
  H        12.3425937688        7.5719861258        3.8802325801
  C        13.2045605950        5.7979685998        4.6876949796
  H         9.1746460535        7.7131308920        4.1810143418
  H        10.0048156089        7.3187225067        2.7309494228
  C         8.2271012026        6.0779456703        3.1862470394
  H        11.3631489462        5.0801418189        1.4518645625
  C        11.4974224162        2.1861155865        0.7725812795
  H        12.0561968081        3.4382118971       15.2279051134
  H        10.7840410159        2.4156793497       15.4766170748
  C        12.7720176238        1.6405190780       16.0736901289
  C         6.5991155381        8.3186407695       16.4001884281
  H        12.9408482879        5.0284268875        5.4597848948
  H        13.3794222080        5.1350566033        3.7922645596
  C        14.4973685004        6.5998225058        4.9594266446
  H         7.8152419397        5.7182662349        4.1466402057
  H         8.4942297752        5.2036023285        2.6189764546
  C         7.2883401918        6.9097020379        2.3025734334
  C        11.6016048887        0.7922157853        0.5969674700
  C        11.9645094538        2.9733423753       -0.4417362661
  H        13.8513902904        1.9015912821       15.8155869634
  H        12.6199060387        0.5554934103       16.0117407271
  C        12.5131178360        2.1014965162       17.5241664603
  H         7.0412908674        9.2992293861       16.4466188310
  C         6.3288326623        7.9236654966       17.7234870569
  H        14.3589753338        7.3404142513        5.7676049554
  H        14.8155293865        7.1244506364        4.0584576409
  C        15.4297280151        5.4727917017        5.5930146224
  H         7.0426494726        7.7683444457        2.8931569085
  H         7.6887097374        7.3034482706        1.3401755826
  C         6.0194690341        6.1474641192        1.9844459058
  N        11.3142840071       -0.1208736618        1.6124300034
  C        12.0075853614        0.2041661128       -0.5506259955
  C        12.3342565408        2.3069808996       -1.6280039491
  H        11.9549396963        4.0487241350       -0.4145984130
  H        12.4206388589        3.2136147030       17.6483569228
  H        13.1996487620        1.6548167747       18.1874272635
  H        11.6117123518        1.6292251704       17.7781366594
  S         6.0905406279        6.3437597381       18.3199120889
  C         6.4465055515        8.9429960178       18.8229455115
  H        15.0442187408        5.1996749518        6.6165362919
  H        15.4077008437        4.5824871853        5.0779246152
  C        16.8727497528        6.0031811881        5.8105470596
  H         5.6386712663        5.6554113587        2.8981629137
  H         6.2450470094        5.2963075630        1.3054738887
  C         4.9835665569        7.1214540762        1.4506633388
  S        11.4926864528       -1.6659897717        1.1382556013
  N        11.8238941843       -1.2704196797       -0.4168403044
  C        12.3225983341        0.8784555230       -1.7384848902
  H        12.5787394212        2.9245839882       -2.4634358080
  C         6.0909102125        7.0660102107       19.9426255716
  N         6.3422498282        8.3965268858       20.0207899171
  O         6.3333973721       10.1303292685       18.6559327916
  H        17.4098349634        5.5894247285        4.9751742003
  H        17.0008423238        7.0537628841        5.6120202300
  C        17.3558834967        5.6876982585        7.2129766363
  H         5.3301232013        7.9316756764        0.9005038001
  H         4.2947195707        6.6355572909        0.7338339389
  C         4.1557888498        7.5145897587        2.6289396465
  C        12.6460765479        0.0667722811       -2.8867067210
  S         5.6144997813        6.2272979767       21.4252075335
  C         6.3272365834        9.1245345930       21.3030755375
  H        16.6261180405        5.9329121044        7.9460195130
  H        17.5019838024        4.5899625570        7.2818870374
  C        18.6787107275        6.3951866440        7.4584508539
  H         4.7534582387        7.7555186613        3.4582043361
  H         3.6265296530        6.6421561984        2.8716485287
  C         3.1354629124        8.5632658022        2.4198920392
  H        12.4012278549       -0.9764670236       -2.7673663694
  C        13.1331607422        0.3344057242       -4.1436245050
  H         6.1964242734        8.5064440190       22.2320516896
  H         5.5545923341        9.8909315133       21.4342881243
  C         7.6317497016        9.8965546967       21.4721402933
  H        18.9826994926        5.9504203976        8.3237829278
  H        18.5483244853        7.4865697186        7.6945241174
  C        19.8280470643        6.0108750678        6.4831906443
  H         2.5014182592        8.4707475427        1.5513859135
  H         2.3821062458        8.4705625733        3.2285307278
  C         3.7957706871        9.9792157626        2.2912305976
  S        13.6463775477        1.8260058478       -4.8201204153
  C        13.2128732271       -0.8251761118       -5.0640485791
  H         8.1727080132       10.0190151411       20.5422231754
  H         8.2908898475        9.4260277923       22.2667214452
  H         7.4241808190       10.9258788730       21.8060880221
  H        20.4829110111        5.4061220787        7.0375161196
  H        19.5658528622        5.4615900889        5.5860348278
  H        20.3979542487        6.8570270797        6.0171190745
  H         4.6005700167       10.1426841537        3.0404868773
  H         4.2827722125       10.0039755003        1.3301476649
  H         2.9681374672       10.6904132307        2.3643658229
  C        13.9278610567        0.9337815491       -6.2906109509
  N        13.8688229588       -0.4457794092       -6.1946656497
  O        12.9351206650       -1.9874590897       -4.6791332752
  S        14.5269711826        1.6688382937       -7.6963339154
  C        13.9720727972       -1.3657316870       -7.3197763056
  H        14.2895086045       -2.4436760577       -7.0584957863
  H        14.7613953667       -0.9918807719       -7.9657006862
  C        12.6631071403       -1.3315010021       -8.1456499869
  H        11.9213472471       -0.4959434962       -7.7660469079
  H        12.1140396648       -2.2694281324       -7.9908599046
  H        12.8481746307       -1.2883395566       -9.2148046629
