352
 i =    45600, time =    22800.000, E =        98.7793981074
  H         9.7530983523        4.9931721128       30.8290816349
  C        10.1250047894        5.8014065906       31.4741767658
  H         9.1682294864        6.3011082071       31.6382668516
  C        11.0919812623        6.6367539937       30.6224112841
  C        10.6357738575        5.2289696391       32.7909830360
  C        11.3985916335        5.9882697357       29.2654254782
  H        10.7072065957        7.6307208854       30.4348771899
  H        11.9775702989        6.9076886005       31.1616725163
  H         9.9334168620        4.7288960842       33.4105749726
  H        11.3871040932        4.5037739391       32.5583071360
  H        11.1353665022        5.9177990051       33.4647254161
  C        10.1957364209        6.0825157241       28.3485584752
  H        11.6396354924        4.9426977150       29.5082744601
  H        12.2574475748        6.5535081909       28.8788572965
  C        10.7247511463        5.9667227517       26.8456491353
  H         9.6389501915        5.2409443122       28.4908696877
  H         9.6421368863        7.0264299415       28.4605392229
  C         9.6840254013        5.2229549837       26.0546046041
  H        11.6252333462        5.3911129871       26.7165018720
  H        10.9718869345        6.8777349652       26.2759412057
  C         8.4817383196        6.1249908717       25.7902283175
  H        10.0350000782        5.0843163151       25.0634464221
  H         9.4662486509        4.2370845997       26.4819066932
  C         7.3691354244        5.4023741466       25.0484677482
  H         8.0911772972        6.4167408408       26.7945301049
  H         8.6534932216        7.0655413514       25.2321049788
  C         7.0312531104        4.0144321197       25.6875312347
  C         7.8136561548        4.7659114183       23.8012290353
  C         5.9978292453        6.2585949947       25.1246233470
  C         7.2248273136        2.9403520017       24.8575470588
  C         6.4320463217        3.5810436565       26.9134232787
  C         7.7304180393        3.3648775487       23.6486997768
  C         8.3222510294        5.3912813378       22.6652459480
  H         6.1777090509        7.1434966259       24.5485517803
  H         5.8058702715        6.6532917526       26.1463311895
  C         4.7620169139        5.5472628398       24.5795949792
  S         6.7754065091        1.3748670372       25.5816830740
  C         6.2362231935        2.2376859744       26.9674189210
  H         6.2584009678        4.3429768247       27.5910720075
  C         8.0588609298        2.7185137888       22.5081843284
  H         8.5490104036        6.4246134564       22.7591913685
  C         8.6991412260        4.7314940825       21.5542070128
  H         4.9804698584        5.4837305803       23.5066785714
  H         4.5455149032        4.6946602788       25.1413972582
  C         3.4908757862        6.4250839076       24.7992123164
  C         5.7775449826        1.5311764673       28.2116763880
  C         8.6194416435        3.3944693349       21.4536412524
  H         7.9286804335        1.6233050324       22.4885284311
  C         9.1961710129        5.1129580201       20.2988058471
  H         2.8331003777        5.9471616675       24.0647071555
  H         3.6492568308        7.4430587316       24.3892935761
  C         2.8011223738        6.3546728629       26.1741758518
  C         5.8316219667        0.1406056958       28.4748377154
  C         5.3040387674        2.3905946334       29.3706525930
  C         8.9968567121        2.7141109634       20.1530119576
  C         9.3599536714        4.0527783734       19.4420433866
  S         9.5634362851        6.6326117864       19.5633213893
  H         1.8494762984        6.9988971648       26.2169531210
  H         3.5761323008        6.6674709648       26.9305380768
  C         2.5882819520        4.9316865467       26.6725904239
  N         6.1686235662       -0.8736586094       27.5587955770
  C         5.7187323860       -0.4223706203       29.7462127671
  C         5.1185777845        1.7898956656       30.6274329431
  H         5.0270334723        3.4177622001       29.2552919975
  C         7.9732339576        1.9244010090       19.3602194133
  C        10.1685039675        1.8491646613       20.3926262601
  C         9.8104236749        4.4610346487       18.1443939545
  C         9.9561163580        5.7671835988       18.1143286704
  H         2.4006387286        4.2143832116       25.9010118774
  H         3.4981285173        4.4708901465       27.1028005883
  C         1.4840484042        5.0007194211       27.7177397965
  S         6.2199727261       -2.3242973553       28.2890389148
  N         5.8622136127       -1.7854067065       29.7833651830
  C         5.4170939091        0.3038682675       30.9271385846
  H         4.7284576124        2.3650754075       31.3847732088
  H         7.5329509923        1.0687059628       19.9419171361
  H         8.5429419723        1.4432583142       18.5765209958
  C         6.8809340458        2.7356458301       18.7762822608
  H        10.4427091399        1.2559112616       19.4231527789
  H         9.8518549098        1.1812963081       21.2302648448
  C        11.4619538896        2.4922652134       20.8590482745
  H         9.8847695712        3.6878650136       17.3776837294
  C        10.2434946900        6.4757013273       16.8525858240
  H         1.1645794962        3.9548169771       27.9312925964
  H         0.5423322163        5.5656586467       27.4411485349
  C         2.0199275493        5.5630884648       28.9774877323
  C         5.1946591912       -0.3606082258       32.1317698896
  H         7.2531486688        3.0031976636       17.7717409049
  H         6.7443506257        3.5908271372       19.4818775749
  C         5.5838133663        1.9437163832       18.7257457361
  H        11.2403580261        3.0768377624       21.7577337173
  H        11.8772631005        3.2335649207       20.1422725254
  C        12.6237801420        1.5543461539       21.1801990648
  C        10.3720499861        7.8623646507       16.7313126007
  C        10.3924703817        5.7372495602       15.5828614930
  H         2.8495154592        4.9349300486       29.2391618101
  H         2.5057278830        6.5148835710       28.8383092537
  C         1.0110401955        5.7073838787       30.1946436958
  H         5.4272070136       -1.3461358409       32.1816330824
  C         4.8808475614       -0.0368696030       33.4405248448
  H         5.3064134871        1.5878530072       19.7143263435
  H         5.6851018733        0.9896010941       18.1765484750
  C         4.4417085579        2.6954974381       18.1514500625
  H        12.3827237656        0.9831071912       22.0841820705
  H        12.9244661054        0.9053123799       20.3811277434
  C        13.8357506849        2.4283729642       21.5999587948
  N        10.2640017156        8.8187700927       17.7255605251
  C        10.6680886258        8.4597121045       15.5156071492
  C        10.7817353904        6.3048657989       14.3631993341
  H        10.2801686512        4.6691614592       15.5728947515
  H         1.5819155935        5.6704245116       31.1507993269
  H         0.5918983385        6.7275550241       30.2098149771
  H         0.1107133605        5.0797190959       30.1662755387
  S         4.6654544252        1.6108642515       33.9915645630
  C         4.8286434951       -1.0771121804       34.5547907898
  H         4.2905336422        3.6301807024       18.7192249023
  H         4.7274611574        3.0227629388       17.1079551413
  C         3.1241831529        1.8965848586       18.2845325665
  H        13.4693968487        3.3163699268       22.0507345833
  H        14.4260284242        2.7444854427       20.7658930735
  C        14.7123973858        1.6280345858       22.5794747025
  S        10.4447175198       10.3138723647       17.0713903310
  N        10.7697360624        9.8626639825       15.5317390136
  C        10.9294811324        7.7767913807       14.3134553922
  H        10.8680580174        5.7030091631       13.4983683686
  C         4.3885284988        0.8662635647       35.6517626686
  N         4.4390912299       -0.4765900897       35.6891070326
  O         5.0206114726       -2.2417972405       34.3808928476
  H         2.2558997148        2.5504557618       18.0308831966
  H         3.0459005684        1.6913131094       19.3085300020
  C         3.0802890038        0.4010029552       17.6871744939
  H        14.0752129392        1.2117965361       23.3847961611
  H        15.1641971892        0.7243980310       22.1954610522
  C        15.7525892590        2.4759308967       23.2523421474
  C        11.1790529504        8.5943875302       13.1856627938
  S         3.6456324962        1.7573830823       37.0739913436
  C         4.3056512091       -1.2597676249       36.8349885258
  H         2.8904293786        0.6907252995       16.6640345501
  H         4.0744859898       -0.0725517224       17.6464260792
  C         2.1015581796       -0.5651302882       18.3801355214
  H        15.6219753777        2.2738325200       24.2852541145
  H        15.4134398049        3.5321814240       23.0539431351
  C        17.1635502950        2.2974508882       22.7728082401
  H        10.9505440330        9.6510040653       13.2262602096
  C        11.5858777207        8.3463450479       11.9222421681
  H         3.5487586395       -0.8692544550       37.5336652690
  H         3.8136449011       -2.2803054988       36.6858000472
  C         5.6486485285       -1.5616597392       37.4527173056
  H         1.1913026715        0.0279051903       18.3696747162
  H         2.2489224280       -0.6797908577       19.5001530438
  C         1.8541053254       -1.9247273878       17.7739911324
  H        17.1229248301        1.7443298921       21.8810303948
  H        17.5919719152        3.1542929533       22.4563510679
  C        18.0711206401        1.8083145224       23.8958421727
  S        12.0340952070        6.7991256026       11.3774595782
  C        11.8895554999        9.4957667826       11.0713798785
  H         5.8967546712       -2.6041263508       37.3713009369
  H         6.3519392634       -0.7651108703       37.2456077763
  H         5.6044708985       -1.5103137126       38.5579255621
  H         2.8013415011       -2.4906657946       17.7221981260
  H         1.4003576785       -1.8617284473       16.7737318234
  H         1.2989227724       -2.4461484705       18.4780942150
  H        18.0106385828        2.5832209369       24.6112250061
  H        19.1315407303        1.6960058045       23.5451180508
  H        17.8288435537        0.8909610206       24.4642236483
  C        12.6174774385        7.7261354918        9.8928318752
  N        12.5893121747        9.1179253760       10.0032363100
  O        11.3639802602       10.6015940531       11.2660874890
  S        13.1604119554        7.0568631719        8.4087063475
  C        12.6640651482       10.0250971918        8.8794490569
  H        12.9465850357       10.9768699916        9.2422359801
  H        13.4717537063        9.7532366953        8.2905808092
  C        11.2975324021       10.2111378159        8.0928034961
  H        11.4155136774       10.5601207123        7.0998059701
  H        10.7570770516        9.2840777170        7.9258036058
  H        10.5982541998       10.9007705782        8.5946666843
  H         4.1800843160        1.0857741849       12.9068720058
  C         4.6250809493        2.0418358500       12.9801641547
  H         5.7086887840        1.9957231731       13.0398916719
  C         3.9229357195        2.9238687630       11.9574245892
  C         4.2881307269        2.3253974809       14.4158936329
  C         4.8486460554        3.1861535123       10.7711173554
  H         3.4808509969        3.8260115523       12.3657367571
  H         3.0847196547        2.3148161092       11.5478251783
  H         4.2915416510        1.4135599813       15.1365420641
  H         3.2736474545        2.8011197421       14.4316436479
  H         5.0303580123        2.9482605123       14.9232500286
  C         5.0111083996        1.8755929453       10.0008031965
  H         4.4335676376        3.9544395472       10.1485402293
  H         5.9197477640        3.5284622890       11.1104429103
  C         5.5819494829        2.0133585475        8.6020721364
  H         4.0266172542        1.5079036385        9.8899601486
  H         5.6560128975        1.1549518626       10.4722576241
  C         6.7813926312        2.8762636920        8.4856110185
  H         4.7981948096        2.4017031781        7.9372165133
  H         5.8692360444        1.0606357628        8.1613122599
  C         8.1130989251        2.1785478308        8.8726381477
  H         6.8594647566        3.1061304573        7.4153333607
  H         6.5920228146        3.7610795368        9.0344490943
  C         9.3315148678        3.0783782228        9.0349751007
  H         8.4195360785        1.3275350600        8.2100104119
  H         7.9796001832        1.6016826497        9.7271686023
  C         8.9674981735        4.4219487397        9.6653542113
  C         9.8221986524        3.7717541929        7.7846368684
  C        10.5240443499        2.4497203529        9.8476239040
  C         9.0827973313        5.4683814373        8.8604928128
  C         8.6303936596        4.7639970196       10.9610368760
  C         9.5990273485        5.1307891743        7.6097315389
  C        10.2203526493        3.1778035386        6.6399293677
  H        10.0243356659        2.0752757872       10.7206155147
  H        10.9156587882        1.6197976900        9.3041541059
  C        11.6964001104        3.2957556012       10.1144970693
  S         8.6521367791        6.9587507877        9.5955594776
  C         8.3375386033        6.1042348950       11.0952967636
  H         8.6739235575        4.0008091274       11.7165842224
  C        10.0745004257        5.7458322238        6.4534962265
  H        10.3508958716        2.1477057192        6.6494920760
  C        10.5298518009        3.7336821989        5.4485087513
  H        11.4237249734        4.2217401788       10.6199359785
  H        12.1836432677        3.5838992077        9.1180030204
  C        12.6516862516        2.7431177600       11.1426664862
  C         7.8926883715        6.6780453478       12.3666579318
  C        10.5257541002        5.0690969375        5.2825829846
  H        10.1526218101        6.8171319033        6.2578229721
  C        10.9202955410        3.2503816624        4.2401846269
  H        13.5065257556        3.3828308559       11.0984092772
  H        13.1424558293        1.7689768810       10.9913437159
  C        12.2432082262        2.8280793429       12.6172269357
  C         7.9129422243        8.0212044926       12.6810682147
  C         7.5516765481        5.8096537692       13.5406054366
  C        11.0596052463        5.6794230766        4.0011560402
  C        11.2048576562        4.2939311775        3.3466499323
  S        11.2311573319        1.6643444761        3.6148186889
  H        12.0621959391        3.8458245713       12.7877512699
  H        11.2862945420        2.3829384273       12.8642223043
  C        13.2127148315        2.3267692021       13.6616524822
  N         8.2432124449        8.9943373443       11.7434165138
  C         7.7197269721        8.5412096784       13.9028542470
  C         7.2674831818        6.3410325357       14.7648181978
  H         7.3708742366        4.8022721739       13.3965669225
  C        12.3998000244        6.3615990706        4.3419581643
  C         9.8740101896        6.4823400253        3.4244782456
  C        11.6082124562        3.7519122180        2.1128014799
  C        11.6290820001        2.3667912476        2.1130973183
  H        14.0570223052        2.9943173969       13.5690572507
  H        13.6913826440        1.3654545893       13.4398052402
  C        12.5346825888        2.4469350415       15.0279289638
  S         8.2737701356       10.4360842538       12.4519309688
  N         7.9343735006        9.9076625570       13.9708647656
  C         7.3475991784        7.8033826744       15.0679219743
  H         7.0131458637        5.6204289818       15.4803230029
  H        12.2489758886        7.1940384679        5.0674921070
  H        12.8480655410        6.8187010807        3.4360429863
  C        13.4786387878        5.5580728706        5.0706968757
  H         9.3859704946        7.2273230335        4.0498936906
  H        10.2726669712        7.0527535120        2.6117248737
  C         8.7358515145        5.6708237126        2.8314710415
  H        11.9007471055        4.4274939420        1.3402521982
  C        11.9296727802        1.5980243793        0.8033683953
  H        12.1589031536        3.4092377126       15.2123311961
  H        11.6582162456        1.7966384163       15.1075584465
  C        13.4909489369        2.2052566771       16.1320205068
  C         7.1710206783        8.5451457046       16.3367087994
  H        13.1057137718        5.1262379420        6.0912998059
  H        13.8021477108        4.6427205695        4.4594542087
  C        14.7530377045        6.4074192177        5.1927753314
  H         8.4949468288        4.9912045264        3.6200338820
  H         9.0041797569        5.0725570624        1.9286413750
  C         7.4698421675        6.4887901223        2.5471343646
  C        11.8718419583        0.2581372598        0.6231984994
  C        12.1898408113        2.4375863070       -0.4052787685
  H        14.3020105511        2.8446702073       15.9000498446
  H        13.9102233852        1.2013376307       16.0254942551
  C        13.0395872178        2.6430692202       17.5207900549
  H         7.5390821782        9.5751981293       16.2977249185
  C         6.6692081631        8.1459473825       17.5677935774
  H        14.6864894154        6.9967614520        6.0930480469
  H        14.8807541473        7.0768057046        4.3383450488
  C        15.9364574784        5.4963941229        5.2793417632
  H         7.2631255476        7.1552087630        3.4204303473
  H         7.6876525890        7.1362339657        1.7270000268
  C         6.2297504546        5.5372542897        2.2544834836
  N        11.6185959537       -0.6130386297        1.6783457124
  C        12.1021022236       -0.3358164555       -0.5735904630
  C        12.4479257559        1.8163200540       -1.6231059682
  H        11.9645544999        3.5003836706       -0.3791427976
  H        11.9695581258        2.5724088314       17.7184399390
  H        13.3526485389        3.7218237913       17.9145244590
  H        13.4900963141        2.0061950419       18.2163727767
  S         6.0756338529        6.5357474526       17.9375256015
  C         6.7977280013        9.1114936645       18.6554911731
  H        15.6828625047        4.5287928857        5.6832828099
  H        16.3283427667        5.4008183699        4.2458265160
  C        17.0043245138        6.1442557174        6.1286871079
  H         6.1129094030        4.9481525351        3.1355363682
  H         6.6120574906        4.7991758691        1.5050463947
  C         4.9832228383        6.2270244859        1.6559225242
  S        11.7143937338       -2.1364009411        1.0893374068
  N        11.9461751068       -1.6962147453       -0.4728858058
  C        12.4001675447        0.3356657455       -1.7545726361
  H        12.5476499994        2.3928940043       -2.5375546239
  C         6.1494972321        7.1310909606       19.6528488330
  N         6.2996663178        8.4653017298       19.7377050600
  O         7.1548084895       10.2889163283       18.5775714457
  H        17.5866287093        6.8861090129        5.6097244821
  H        16.6109968073        6.5984989968        7.0141012563
  C        17.8913310168        5.1421351774        6.7914892857
  H         4.8796032782        6.0672837023        0.5417555302
  H         4.1400561975        5.5986563256        2.0357405972
  C         4.5788788767        7.6076407685        2.1251572399
  C        12.5287859770       -0.4208667320       -2.9490595937
  S         5.4189083157        6.2574719100       20.9782104860
  C         6.1954205114        9.1593499754       21.0631560704
  H        17.3295036144        4.5504871464        7.5152845225
  H        18.3010093571        4.4997578264        5.9956537214
  C        19.1047839066        5.7946364784        7.4182484284
  H         5.0167318454        7.7427466698        3.1411655651
  H         3.4991559765        7.7119490015        2.1888378302
  C         5.1409060723        8.6519444468        1.2166468064
  H        12.3803259908       -1.5041923977       -2.8879611469
  C        13.2086517519       -0.1629799443       -4.1272252316
  H         5.4441259578        8.6925318422       21.7032515658
  H         5.9327424055       10.2260017206       20.9911440332
  C         7.4713115005        9.0364849739       21.9072364251
  H        19.4941337877        5.1782216914        8.2016003144
  H        18.9178925929        6.7530140948        7.9885574282
  C        20.1269123585        5.9676319108        6.3400082354
  H         5.4122645953        9.4921750453        1.7746155576
  H         6.0305533046        8.4049480046        0.6079832031
  C         4.0958558117        9.2206438065        0.2159589176
  S        13.9282226198        1.3619988112       -4.6335286640
  C        13.3716402403       -1.2746312857       -5.0822626460
  H         7.2398495143        8.6999518115       22.9080055429
  H         7.8674087412       10.0293892251       21.9832879927
  H         8.1848397156        8.3556873512       21.4777286534
  H        20.4504601544        4.8769582682        6.1243115777
  H        19.7977662452        6.3757816395        5.3770823666
  H        20.9959377508        6.4493680165        6.7334076411
  H         3.2239986771        9.5248754302        0.7113285692
  H         4.5208962702       10.0399374249       -0.3536538583
  H         3.6966518095        8.5284610157       -0.5027074141
  C        14.4656043663        0.4726579203       -6.0841659860
  N        14.0638826457       -0.8674082478       -6.1263955215
  O        12.8411090828       -2.4022714731       -4.9741126979
  S        15.3158747938        1.0941777574       -7.4890229901
  C        14.1046590489       -1.6811834694       -7.3175380196
  H        14.1389522926       -2.7538097251       -7.0151226464
  H        15.0784813965       -1.5762712531       -7.7410102860
  C        12.9594634468       -1.2407568103       -8.2177317995
  H        12.7957652775       -0.1750345680       -8.0583301465
  H        12.0298779342       -1.6713670517       -7.9134896560
  H        13.2659270948       -1.5441376312       -9.2938612172
