352
 i =     5300, time =     2650.000, E =       179.6444291535
  H        12.2042961393        5.8844251734       31.6753824732
  C        11.1881678224        5.4835425185       32.0339388600
  H        11.3446116953        4.4276201414       31.9568413500
  C        10.0576575226        5.8357476467       31.0330975038
  C        10.9193903818        5.7489775448       33.5073243157
  C        10.2944808543        5.0967985022       29.7121876133
  H         8.9498426672        5.8489570216       31.3596249172
  H        10.1238903764        6.9124360590       30.8806086503
  H        10.2411368837        6.5095134976       33.6365602830
  H        10.5822509382        4.8792224697       34.1067972296
  H        11.7938986175        5.9099127560       34.0808239479
  C        10.6653461554        6.1070194451       28.5908247109
  H         9.3636129832        4.5204896268       29.6061324199
  H        10.9947516634        4.2521452921       29.9956329704
  C        11.1161168094        5.4958099484       27.2870432867
  H         9.7869599748        6.6210134902       28.2872130344
  H        11.4442781274        6.7554761004       28.8660957609
  C         9.9018346442        4.9443120355       26.4813764679
  H        11.7979182861        4.6347442565       27.4895043527
  H        11.6753286945        6.2821480867       26.8205802853
  C         8.6946059267        5.9055886151       26.1033605863
  H        10.3852753116        4.5205512649       25.6080673059
  H         9.7317074046        3.9952392924       26.8960907411
  C         7.5400072913        5.2013189601       25.3059862233
  H         8.3020730369        6.4685146537       27.0069773354
  H         9.2149792654        6.5411400861       25.3973498275
  C         7.1759273866        3.8172385043       26.0594816567
  C         7.9793294286        4.3600234479       24.0988361089
  C         6.3159515242        6.1274410577       25.1432304532
  C         7.3435597275        2.7088292931       25.2422341853
  C         6.7221334599        3.5015575988       27.3469933471
  C         7.8697800092        3.0368179110       24.0332525875
  C         8.2797407224        4.9824358863       22.9118662546
  H         6.6685078715        6.7535817002       24.3371504318
  H         6.1936685979        6.9486869636       25.9213970670
  C         4.9821236530        5.4772833582       24.6540786808
  S         6.8619967436        1.2061081389       26.0784259814
  C         6.3777135906        2.1388668996       27.4147395733
  H         6.6654434448        4.2633947290       28.0494816293
  C         8.3360886323        2.3508064447       23.0029867186
  H         8.0733229180        5.9753970909       22.8729871637
  C         8.5781305619        4.2383471996       21.8108152831
  H         5.2757458557        5.1255001398       23.7192668060
  H         4.8518785075        4.5762359181       25.2063089769
  C         3.8264931826        6.4872330077       24.4533428958
  C         5.9064601538        1.5274676296       28.7262745027
  C         8.6880151126        2.9199887946       21.7312230473
  H         8.5868734536        1.3146619371       23.2357231606
  C         9.0093618068        4.6943520533       20.5555786189
  H         3.1309512721        5.9927235268       23.7252937656
  H         4.1530390645        7.3192129511       23.9465673855
  C         2.9695644744        6.8309440400       25.7192768659
  C         5.8399503386        0.1101049427       28.8815326362
  C         5.4131018889        2.3683932913       29.8687480863
  C         9.0975811536        2.1948521721       20.4690403985
  C         9.3349565406        3.6232412570       19.7120736535
  S         9.0164298024        6.2094771219       19.7009038742
  H         2.3614229781        7.7247470185       25.3616804311
  H         3.5297474201        7.2317732574       26.5615315566
  C         2.1974412878        5.5529625527       26.1937122910
  N         6.0288563678       -0.8506610274       27.9231311205
  C         5.6440675637       -0.5014199715       30.1022127202
  C         5.1815264291        1.8038268033       31.1141100347
  H         5.3850076999        3.4201967509       29.8501132871
  C         7.9125441580        1.4069494656       19.9795892358
  C        10.3924960543        1.4352494436       20.7233277084
  C         9.7193497059        3.9990652476       18.4719056646
  C         9.7531135647        5.4117793858       18.3114610258
  H         1.3149161194        5.3498135042       25.5613064945
  H         2.8124106764        4.6989323310       26.2417754028
  C         1.4721051952        5.6829804904       27.6250283988
  S         6.2569918195       -2.2745387803       28.5413033484
  N         5.7446241561       -1.9018793699       30.0809440822
  C         5.3282698164        0.2865018500       31.2729352440
  H         4.8996192279        2.4414183240       31.9160443670
  H         7.4097787430        0.8477799525       20.8321009981
  H         8.2643814423        0.7099828429       19.2324191785
  C         6.8083577031        2.2542166380       19.3622401471
  H        10.4969889062        0.6607529094       19.9177038293
  H        10.0951636109        0.7612677731       21.5420487325
  C        11.6888180903        2.2370874568       21.1868078664
  H         9.8752876975        3.2536911228       17.7898050624
  C        10.1009199403        6.1618701035       17.0043626950
  H         0.6399341168        4.9284608019       27.4869848703
  H         0.9663434064        6.6661232815       27.7788511093
  C         2.3632084194        5.3708836802       28.7668054711
  C         5.0763427503       -0.3852774812       32.5396252206
  H         7.2465850561        2.8310557817       18.5030075934
  H         6.5309903523        3.0459863824       20.0212193164
  C         5.5887482094        1.4839365843       18.9235744834
  H        11.6107993773        2.7960057105       22.1672886956
  H        11.9115815238        3.0211768116       20.4961798816
  C        12.9227044858        1.3147467376       21.1663002560
  C         9.9768060524        7.5229669287       16.7627397050
  C        10.4539067601        5.3617197704       15.8243877914
  H         2.5109261881        4.3193300392       28.7980512341
  H         3.1917830980        5.9065028133       28.6310145882
  C         1.8264573027        5.8809059860       30.1260142275
  H         5.3789099381       -1.4009718053       32.4015171125
  C         4.8963867225       -0.0815373099       33.8369683322
  H         5.2906101089        0.9348497657       19.8143830822
  H         5.8951825391        0.6557654730       18.2566009868
  C         4.3161329158        2.2936766491       18.4409083841
  H        12.7996011213        0.4745478421       21.8844746298
  H        12.9722378703        1.0644084549       20.1216551330
  C        14.2855813263        2.0482492022       21.3418924399
  N         9.6719962055        8.4472687489       17.8676113861
  C        10.2224483778        8.1525472274       15.5633097325
  C        10.6236985523        5.9444039179       14.5680583875
  H        10.6030661912        4.2720823839       15.8583299047
  H         2.4543822222        5.7011812381       30.9706621979
  H         1.5474859164        6.9761266119       30.3112713994
  H         0.9359478922        5.3303737105       30.3840866039
  S         4.4956912482        1.4580826856       34.4447612710
  C         4.6766063475       -1.2038440428       34.8089224302
  H         4.1736047765        3.1231035339       19.0567086773
  H         4.6048141622        2.7243855158       17.4825438476
  C         2.9598709810        1.6106662627       18.4957201253
  H        14.4552198425        2.6168872070       20.4337973717
  H        15.1532598653        1.3961139235       21.6136953845
  C        14.2513675312        3.0404595707       22.5600799205
  S         9.5233332252        9.9002063570       17.1621535243
  N         9.9335168347        9.5090747511       15.5834253831
  C        10.6488173141        7.4570617609       14.3901515430
  H        10.8999023449        5.3230500970       13.7326124005
  C         4.1975377469        0.6831422629       36.0176355011
  N         4.3294925373       -0.6620095444       35.9846634618
  O         4.8966347874       -2.3663406045       34.5756149190
  H         2.2554848377        2.2569841249       18.0946818736
  H         2.5743330317        1.1902191322       19.4968268694
  C         2.8794996800        0.4342445768       17.4961885747
  H        13.5397617851        3.8799697033       22.2946343654
  H        13.9124278830        2.4250497396       23.4131729719
  C        15.5635451675        3.6159742085       22.8174567248
  C        11.0192882215        8.1954001010       13.2135571650
  S         3.8409415818        1.4871992559       37.5181885821
  C         4.4064727237       -1.4610100007       37.2541911522
  H         1.8442610620        0.6004076340       17.0684883267
  H         3.6567292007        0.4427127458       16.7449655159
  C         3.0081631537       -0.8997894503       18.2876021195
  H        15.2905257018        4.5211480714       23.4894656790
  H        15.8958449976        4.2188028243       21.9594645532
  C        16.5811056129        2.6211733769       23.3932422672
  H        11.0658601420        9.2416161089       13.3493340077
  C        11.5875160875        7.8385445913       12.0061585639
  H         3.6893868807       -1.2421609913       38.0776576827
  H         4.2364370968       -2.4046078431       36.9700122369
  C         5.8826331478       -1.5279742484       37.7970177941
  H         3.7254488166       -0.8983634361       19.0531330055
  H         3.3203211721       -1.7273105636       17.5773302679
  C         1.6930288417       -1.3495707657       18.9038518597
  H        17.0001740926        3.2906370838       24.1605606354
  H        16.2309964624        1.9059206852       24.0969084018
  C        17.7395996264        2.2130856183       22.4995401446
  S        11.9964215144        6.3119827501       11.5581081797
  C        11.5078593208        8.8312497606       10.9197285689
  H         5.8083481835       -1.8881737758       38.8606908594
  H         6.5686340509       -2.0368019107       37.1087482179
  H         6.2636789105       -0.5550820828       37.7981659604
  H         1.7522825809       -1.0961947621       19.9778880108
  H         1.5829391619       -2.4546096810       18.7898777277
  H         0.7714543537       -0.9350598129       18.4869999274
  H        18.2385066827        2.9087033578       21.8584942832
  H        17.4212394716        1.5695960818       21.6553416107
  H        18.5423746526        1.7523408493       23.0287383742
  C        12.3951196306        7.0448040203        9.9547761804
  N        12.0963309119        8.3578358882        9.8533861190
  O        11.0687857323        9.9750560952       11.1473255289
  S        12.7125113162        6.1658349027        8.4593777821
  C        12.2422572856        9.0563737788        8.6664587785
  H        12.4699428550       10.0044102079        9.1104254555
  H        13.2080449864        8.7359415348        8.2049976366
  C        11.0858104902        9.1285782667        7.7339424977
  H        10.2374306280        9.5317547352        8.2837476698
  H        11.1359957142        9.8117387678        6.7876486359
  H        10.8629772803        8.1231568765        7.3310471609
  H         4.1460412168        1.1520672389       12.7268073350
  C         3.8596541008        2.2539966717       12.7344002330
  H         4.6414096365        2.8780018821       12.8496866519
  C         3.1272514069        2.4468489829       11.5025987269
  C         3.0574304102        2.5234638163       14.0126574512
  C         3.9607553692        2.7140098839       10.2623480207
  H         2.4177841218        3.2545376165       11.7608012944
  H         2.5303139005        1.6567403064       11.1564352507
  H         2.5495540100        1.7254787385       14.3420532597
  H         2.3655525112        3.2757619478       13.7815588036
  H         3.6463067363        2.7990953177       14.8364948584
  C         4.8483242168        1.5010496337        9.9436479119
  H         3.1832723695        2.8521045936        9.5597785012
  H         4.5585028095        3.5520643916       10.2575244375
  C         5.6557481126        1.4813705879        8.6692139217
  H         4.2789523339        0.6453618185        9.8815274574
  H         5.5002852358        1.1841492272       10.7588420576
  C         6.9717379774        2.3868529984        8.5741279764
  H         5.0608766136        1.6944625242        7.7758602184
  H         5.9980899000        0.5390422421        8.5990740089
  C         8.2073192124        1.7250974772        9.1549268466
  H         7.1687839101        2.5374183165        7.4304879745
  H         6.6754089664        3.2964731008        8.9088782856
  C         9.4329634162        2.6100039119        9.2721634045
  H         8.4593508390        0.9042471274        8.4863223712
  H         7.9714909863        1.1811685161       10.0816414772
  C         8.9454315277        3.9847956787        9.9458194418
  C         9.7137796396        3.3375196788        7.9701407030
  C        10.6655929187        1.8601252401        9.9584017635
  C         9.1042642392        5.1065262498        9.1079035350
  C         8.4831434220        4.2973844716       11.2320792020
  C         9.5296297529        4.6315588292        7.8572422454
  C        10.0791061697        2.7412328274        6.7821079506
  H        10.1154635556        1.5277444685       10.8763350559
  H        11.0228641425        1.0238864140        9.4353248371
  C        11.9022582678        2.7591820193       10.2896729911
  S         8.5927175623        6.6007505902        9.7202053008
  C         8.2889626493        5.6917800962       11.2816667805
  H         8.3224702442        3.4910526514       11.8403267904
  C         9.7828481849        5.2947417076        6.6214272708
  H        10.4697894784        1.7251729520        6.8927828718
  C        10.1690050635        3.3214597759        5.5488352002
  H        11.6615854424        3.7606488456       10.5349949769
  H        12.5660606837        2.7340820065        9.4073408131
  C        12.7449258524        2.0721251263       11.4352876121
  C         7.6963615979        6.5117665101       12.4220344609
  C        10.0518750644        4.6350273096        5.3995855338
  H         9.7175525639        6.3672462885        6.7036218561
  C        10.5964340344        2.9231078846        4.3045282607
  H        13.7769219596        1.9686956137       11.0108569593
  H        12.3205682147        1.1678094677       11.4987220353
  C        12.5181888260        2.6885679777       12.7964989279
  C         7.6482748850        7.8444472973       12.6338663433
  C         7.2795946856        5.6701390651       13.5782900179
  C        10.4247385140        5.4050759175        4.1205635597
  C        10.6707708725        4.0431795062        3.4069897358
  S        10.9745399127        1.4004893869        3.5192667937
  H        12.8975974754        3.7320632780       12.6753930216
  H        11.4701087035        2.7627499304       12.9929104517
  C        13.2371585171        1.9434043066       13.8420977183
  N         7.9142611087        8.8502791578       11.6912182158
  C         7.2665385048        8.4032144567       13.8570359535
  C         7.0829309877        6.2518021475       14.9139975171
  H         7.0043422085        4.6200662327       13.4828334078
  C        11.7186414081        6.1978999105        4.2923195430
  C         9.2681682700        6.1781228438        3.4956425446
  C        11.1373219102        3.6195323219        2.1546347343
  C        11.2661346561        2.3017377453        2.0820550926
  H        13.9544328924        2.6908969049       14.1873858417
  H        13.8039427560        1.0182952163       13.5169881936
  C        12.4385620935        1.6686328315       15.0477632354
  S         7.7881262055       10.3321828547       12.3421233129
  N         7.1903371855        9.8100576834       13.7919868018
  C         7.0309428663        7.7182229929       15.0649879761
  H         6.8630560637        5.5587404375       15.6938970451
  H        11.6170216069        6.9685835589        5.0688259918
  H        12.0728650100        6.8735183800        3.5597784489
  C        12.8366528771        5.2612239280        4.7801876307
  H         9.0103047213        7.0023936792        4.1651408482
  H         9.6179809527        6.5825364224        2.5477752296
  C         8.0066005651        5.3200624973        3.2775230034
  H        11.4277806654        4.3045924527        1.2316270966
  C        11.6786031339        1.5533184110        0.8081532972
  H        11.7987977718        2.4301417879       15.1359169596
  H        11.6710863796        0.8998732781       14.7954625627
  C        13.2781866106        1.4899985019       16.3467138239
  C         6.6923145216        8.4557300323       16.2520583525
  H        12.6581411416        4.8410599841        5.8018067793
  H        13.1056340089        4.3864428532        4.0504413747
  C        14.1450636788        5.9692245136        5.0732797645
  H         7.5246557770        4.8609716766        4.2030088237
  H         8.1538761078        4.5647042059        2.5186031865
  C         6.8692932330        6.2445918410        2.8326267719
  C        11.6685333403        0.0967871644        0.6535158930
  C        12.0523802517        2.3169794543       -0.4617233358
  H        14.2671925898        1.8690805113       16.0231097335
  H        13.3665912437        0.4485083784       16.6435919408
  C        12.7511714355        2.3343455843       17.5573356282
  H         6.6504036163        9.5509775311       16.1991579903
  C         6.4480960186        7.9307075061       17.4971328261
  H        13.8586761794        6.6022601202        5.8746444917
  H        14.4669947886        6.3774985136        4.1312923711
  C        15.2711536053        5.1823032600        5.5880153926
  H         6.9344289064        7.1926866023        3.4827855027
  H         7.0132848118        6.1921272811        1.7389141508
  C         5.4904928893        5.6077527692        2.9058476838
  N        11.3587624964       -0.8169679152        1.6684483251
  C        12.1262104839       -0.5285460692       -0.5378016118
  C        12.3932651435        1.6529027630       -1.6090031175
  H        11.8851840217        3.3608313216       -0.3116044428
  H        12.0808674759        1.7513820596       18.1867736554
  H        12.2879301753        3.2347236373       17.2072465890
  H        13.6051023387        2.8021639917       18.1290002183
  S         6.2103828467        6.2832311381       17.9927038862
  C         6.4020675730        8.9203254710       18.6298872464
  H        14.9963165062        4.8474591800        6.6510568791
  H        15.3084304851        4.2944154593        5.0020543011
  C        16.6022284484        5.8073174881        5.6899583681
  H         5.2323066361        5.5437322210        3.9755963994
  H         5.5297896334        4.6175118834        2.5737990352
  C         4.5019752283        6.3678461784        2.0089127087
  S        11.6632091947       -2.3327354682        1.0861680212
  N        12.1272202741       -1.9084166972       -0.3632315213
  C        12.5192422244        0.1747089009       -1.6695524684
  H        12.5847615525        2.2416598702       -2.4503116113
  C         5.8517690437        6.9997584139       19.5841792998
  N         6.0370322963        8.3276405399       19.7679479159
  O         6.4647863467       10.1375804385       18.4129129851
  H        16.8412029940        5.8952359262        4.6287101595
  H        16.3842510874        6.7768254359        5.9558290557
  C        17.5794037922        4.9629176276        6.4994941406
  H         4.6663286007        6.0874491658        0.9762147448
  H         3.4162008694        6.0009674791        2.1538365390
  C         4.5298272032        7.8477810368        2.1041788529
  C        12.8922479611       -0.4939658429       -2.8987357601
  S         5.6945824266        6.0820082067       21.0615721734
  C         5.7950310819        9.0758607665       20.9992361352
  H        16.9726363841        4.4567961026        7.2368889652
  H        17.9025617181        4.1349046479        5.9244069637
  C        18.7960950140        5.7534771097        7.0739458873
  H         5.4877019195        8.3093865753        1.7621586136
  H         4.4628218435        8.2120604856        3.1098800316
  C         3.6075453386        8.5917539394        1.0898004792
  H        12.6759004253       -1.5851316825       -2.9274417120
  C        13.1756407339       -0.0533163997       -4.1495023874
  H         5.3280688903        8.6859995079       21.9658421263
  H         5.3778537592        9.9895262888       20.6492199236
  C         7.2712766533        9.3330225173       21.5809069035
  H        19.1647151661        5.1608216515        7.8786011545
  H        18.5647176604        6.7378311115        7.4231309113
  C        19.7930765790        5.8607731565        5.9591329217
  H         3.6960351086        8.1838272836        0.1235901988
  H         2.5762421707        8.4109849768        1.2179282353
  C         3.9571167398       10.1061940410        1.0449088727
  S        13.7805091174        1.4223842990       -4.6281557792
  C        13.2926728556       -1.1891104557       -5.1909827466
  H         7.9851365789        8.4566438874       21.6457239243
  H         7.2446618708        9.6923384379       22.5557915491
  H         7.7518518097       10.2469787257       21.0258682804
  H        19.4413280349        6.4365514297        5.2010133651
  H        20.7816895301        6.0868484423        6.3813271330
  H        19.8336948599        4.8657359612        5.6328126169
  H         3.9325558990       10.4511276727        2.0709799715
  H         4.9455993564       10.0850954362        0.7018415477
  H         3.3972368581       10.7341361794        0.3339978447
  C        14.0900013358        0.6619621892       -6.1544370998
  N        13.8206735321       -0.6778849082       -6.3039405454
  O        12.8448782111       -2.3118619882       -5.0975777871
  S        15.1039301121        1.4272174588       -7.3985187056
  C        14.1864802687       -1.5433679855       -7.4272644858
  H        13.8717134778       -2.5923282933       -7.3454397184
  H        15.2663026772       -1.6000254854       -7.5257686881
  C        13.3722045612       -1.1839900142       -8.7468740941
  H        12.8562844492       -2.0583536924       -9.0615327290
  H        14.3568318484       -0.9143320882       -9.2788175369
  H        12.6716881316       -0.3903756401       -8.6433697417
