352
 i =    69300, time =    34650.000, E =        99.4157221189
  H        11.7536374879        7.0544663033       32.6487945930
  C        11.3421802604        6.0559177401       32.4992351817
  H        12.2546603069        5.4298033980       32.3419375036
  C        10.3566689764        5.9901844066       31.3683805379
  C        10.7577569239        5.5484407672       33.8379984223
  C        10.8742720105        6.2961500926       30.0153280039
  H         9.9506664091        4.9862998893       31.4276349950
  H         9.6122268681        6.6861015654       31.6372809930
  H         9.7341441022        5.8641689707       33.9832079716
  H        10.9299721439        4.5037143231       33.9777921349
  H        11.2315901310        6.1317378271       34.6010269081
  C         9.8172880096        6.1603708256       28.9198046929
  H        11.5785024234        5.4980387755       29.8979335516
  H        11.3437429530        7.2772702273       30.1214246846
  C        10.4217960363        5.9357497660       27.5766470719
  H         9.2578668198        5.2846194149       29.0782352607
  H         9.1339617964        6.9901631410       28.9527176907
  C         9.5466187072        5.3149288972       26.5138140430
  H        11.2707498686        5.3183772448       27.7109585882
  H        10.9015001013        6.7778007475       27.3061274539
  C         8.4056399021        6.1999544141       26.1518671895
  H        10.0822337851        4.9615524909       25.6018681291
  H         9.1848095535        4.3807007361       27.0699903148
  C         7.2755224240        5.4600097585       25.3597370288
  H         7.9464673236        6.6060612820       27.0730698743
  H         8.6561629695        7.0411355515       25.5870532924
  C         6.8747056256        4.1168941537       26.0281316577
  C         7.7334072021        4.7594558375       24.1337561523
  C         6.0452135976        6.3682212019       25.0822097989
  C         7.0560251570        2.9998772017       25.1996782767
  C         6.1752246732        3.8201538373       27.1497782261
  C         7.6050531542        3.4226881508       24.0287442517
  C         8.1973305631        5.3542190454       22.9402691898
  H         6.3300089794        7.3327539082       24.6415826914
  H         5.7579700768        6.7132752741       26.0640173783
  C         4.8666747642        5.5885866859       24.4707678280
  S         6.4632333596        1.6284774653       25.9722215948
  C         5.9677745914        2.4875176840       27.3819920696
  H         5.8965091768        4.6202734643       27.7797168697
  C         8.0076048480        2.8190935861       22.8896884876
  H         8.1611851957        6.4937036438       22.9649364528
  C         8.6774217890        4.7278220657       21.8487699483
  H         5.0386176510        5.1458522730       23.5357870719
  H         4.5475282717        4.8594336895       25.1697763386
  C         3.7351665321        6.5936949719       24.2168363110
  C         5.5456382882        1.7451689250       28.6579431117
  C         8.5895669267        3.3822058882       21.7167006363
  H         7.7695969888        1.8155683215       22.8078152504
  C         9.1557012042        5.1589367457       20.6194626175
  H         3.0605355634        6.3179030759       23.4933690039
  H         4.0095883639        7.5385602581       23.8453961595
  C         2.9271167087        6.8651370619       25.4805229069
  C         5.7007659802        0.3706047499       28.8759101208
  C         5.1030036208        2.4882467086       29.8108916555
  C         9.0761377530        2.7368142176       20.4874979364
  C         9.3124221492        4.0450546860       19.7977161191
  S         9.5015977283        6.6166950905       19.8665630482
  H         2.1817858332        7.5772461411       25.2781918940
  H         3.6725931220        7.3442204751       26.1210570673
  C         2.2262596456        5.6079750453       26.0791642042
  N         6.1103588351       -0.4506672631       27.8739936636
  C         5.4867782046       -0.2788818689       30.1044750079
  C         4.8371428604        1.8561992133       31.0239897851
  H         4.9523075110        3.5298888295       29.6455801806
  C         8.0375954482        1.8680744255       19.7176624371
  C        10.3169190189        1.8613572526       20.8137789276
  C         9.6501427436        4.4198022757       18.4346909590
  C         9.7984080783        5.7661306424       18.3734595712
  H         1.5455883153        5.1102218372       25.3467017638
  H         2.9976798004        4.9117500017       26.2373497681
  C         1.4582938777        5.7635563348       27.3700458390
  S         6.3621753739       -1.9550698349       28.5450371714
  N         5.6956249122       -1.6178757406       29.9880344005
  C         5.0986298804        0.4048540483       31.2670336635
  H         4.3010122250        2.4552589892       31.8137488590
  H         7.8284800500        0.9652318305       20.3401137307
  H         8.4317826430        1.4921223408       18.7862481294
  C         6.7656541938        2.6005789529       19.3563309566
  H        10.3920270302        1.2007489045       20.0221026355
  H        10.2015589928        1.2554186052       21.6878019292
  C        11.5769794266        2.6857210564       21.0007784510
  H         9.7442122185        3.6525957967       17.7026358875
  C        10.1801229900        6.4138701974       17.0809566032
  H         0.8896907382        4.8391109059       27.4058732934
  H         0.6347922729        6.4972045840       27.4403974084
  C         2.3986714360        5.8910978891       28.6036918226
  C         5.0053462244       -0.3109647366       32.4908413617
  H         6.9479201108        3.4635177817       18.6523521060
  H         6.3699118374        2.9776282087       20.3010104352
  C         5.7811790616        1.5838037904       18.9511408520
  H        11.3949390766        3.1720463605       21.8965209543
  H        11.7300256486        3.4789762388       20.2463894334
  C        12.8213263442        1.8070999516       21.2128562137
  C        10.2395367321        7.8131528516       16.8497938647
  C        10.5392212739        5.6572412521       15.8240764399
  H         2.9733652563        5.0071307473       28.7670838225
  H         3.0907379238        6.6669878332       28.4559216344
  C         1.5185027145        6.1654400341       29.8429482613
  H         5.2156968240       -1.3761768400       32.4813407164
  C         4.6474689464        0.0792163902       33.7640590265
  H         5.4409085130        1.1116787025       19.8361732969
  H         6.3739434670        0.8357145777       18.4864384757
  C         4.5259569991        2.1514644576       18.2253567478
  H        12.7485769065        1.2703412092       22.1123765514
  H        12.9111248906        1.1457922541       20.3891810111
  C        14.1185357547        2.5374980464       21.3458154689
  N         9.8848527100        8.7295619767       17.8887363617
  C        10.5843537948        8.3774684209       15.6375064949
  C        10.9588979189        6.2719537386       14.6079142937
  H        10.4632671943        4.5646320747       15.8494010413
  H         0.7830246720        7.0664192456       29.7062538396
  H         1.0680086292        5.2552529728       30.2331215279
  H         2.2250946483        6.3232517949       30.6783971495
  S         4.1795469751        1.7131085058       34.2538543261
  C         4.6027333142       -0.9466339428       34.8385848860
  H         4.2973785043        3.0833951765       18.8147501017
  H         4.7128136468        2.6036728558       17.2574020361
  C         3.3478091548        1.3035574133       18.2428582592
  H        14.1677617855        3.4949639366       20.7382459123
  H        14.9850933535        1.9758224601       21.0818892639
  C        14.1818490579        3.0636411872       22.7186290420
  S         9.9904106040       10.2077973141       17.1949648689
  N        10.4191133274        9.7630704927       15.6931618851
  C        10.9580973680        7.7289191033       14.4341789026
  H        11.1552304944        5.6836929196       13.7274059589
  C         3.9975983413        1.0159401866       35.8356575190
  N         4.2435424168       -0.3310678934       35.9659417377
  O         4.6696098847       -2.2067267506       34.6965780308
  H         2.6026399023        1.9226031374       17.7964490416
  H         3.0957948530        1.1889916796       19.2614914160
  C         3.4180892769       -0.0311516111       17.4907347206
  H        13.3676456573        3.8224225944       22.7534059482
  H        14.0405162604        2.2874174664       23.4464444696
  C        15.4633214427        3.7292034314       23.1795080597
  C        11.2421815556        8.5832125640       13.3035604759
  S         3.7677528240        1.9093000005       37.3643362320
  C         4.2273680393       -1.0076606819       37.2600879349
  H         3.5975399032        0.2624263520       16.4607498992
  H         4.3053267052       -0.5976216946       17.8351580244
  C         2.2200806778       -0.8167998908       17.6662276884
  H        15.6082318931        3.5355659034       24.2188912511
  H        15.2804919437        4.7983660852       23.1584290321
  C        16.7230403203        3.4944308734       22.4251801741
  H        11.1250059358        9.7251402476       13.4072471358
  C        11.7175487458        8.3319624453       12.0195695053
  H         3.5679675265       -0.5455856164       37.9983758232
  H         3.8547035138       -2.0765486720       37.1517012557
  C         5.6736473367       -1.1580291302       37.7999391387
  H         1.3815166785       -0.1962543607       17.6974818749
  H         2.1663010623       -1.2744475812       18.6192471686
  C         2.1193647114       -1.8782485606       16.5818399017
  H        16.7075101758        3.7281350213       21.3584986284
  H        17.4052067188        4.2037741975       22.8141556107
  C        17.3262538442        2.1520725941       22.7035938603
  S        12.2155552038        6.8034757553       11.5241971658
  C        11.7667910048        9.4277478187       11.0100008098
  H         5.7431069731       -0.9497911488       38.8447999219
  H         6.0370629690       -2.1986917439       37.7009383123
  H         6.3207956050       -0.5509969696       37.2202137004
  H         1.6523504633       -1.3900617479       15.7828982797
  H         1.4866960812       -2.7226354993       16.6771927795
  H         3.0976136037       -2.2491355973       16.3043504607
  H        17.1560173133        1.5976303218       21.7962748744
  H        16.8086227957        1.7046050123       23.5944176059
  H        18.4278908312        2.2260152524       22.6919175407
  C        12.7091191303        7.6420798668       10.0191516091
  N        12.3638408010        8.9731521296        9.9459246425
  O        11.4982844781       10.6140738203       11.2324684759
  S        13.6840175703        6.8159800260        8.7716118447
  C        12.5483465208        9.8958680373        8.8386271534
  H        12.6630798733       10.9406619938        9.1856791351
  H        13.4985949052        9.6921316279        8.2924779392
  C        11.3752309493        9.7667963677        7.8221431950
  H        10.4956289716       10.1791836802        8.2126085737
  H        11.5663552720       10.2597581277        6.8552591570
  H        11.1900383649        8.7188297928        7.5938163173
  H         4.5725214056        1.5402291358       12.1678001270
  C         4.2182091728        2.5389023601       12.3481239458
  H         4.9690205103        3.2396885768       12.6997193300
  C         3.5186547062        3.0367086787       11.0983119752
  C         3.1623482546        2.4617673614       13.4887737956
  C         4.4483494650        3.2169888436        9.9211358178
  H         3.1197653722        4.0096781605       11.3232217942
  H         2.7784739371        2.2801832089       10.8672742379
  H         2.3243684541        1.7286741971       13.3015881350
  H         2.6266992213        3.3949709114       13.4843686516
  H         3.7729464348        2.3248274657       14.4492173406
  C         4.8025221449        2.0205801220        8.9651053595
  H         3.9940754479        3.9343411363        9.2688056497
  H         5.3083456690        3.7777028539       10.3181731786
  C         5.6707392126        2.3056803395        7.7326981360
  H         3.8393993915        1.5892319238        8.6895487199
  H         5.2281838532        1.2121407841        9.5382606277
  C         6.9660363495        3.1146849080        7.9925132698
  H         5.0542108797        2.8106543120        7.0537722343
  H         5.9441349651        1.3502865919        7.1554045871
  C         8.1609359648        2.2488004672        8.6618071253
  H         7.2015617762        3.5963567483        7.0344820882
  H         6.6595049086        3.9933348595        8.4746390499
  C         9.4096570961        3.0813901585        9.0509608528
  H         8.4227313786        1.3111204033        8.1290050324
  H         7.7485942007        1.8040301020        9.6202997959
  C         9.0559677730        4.4577299903        9.7497032363
  C         9.9071230220        3.8455672312        7.8441885642
  C        10.4908410024        2.3537779803        9.8540302725
  C         9.4062171415        5.5833751411        8.9981631132
  C         8.4795969405        4.7824922926       10.9718558566
  C         9.9001612500        5.2099378855        7.7643014768
  C        10.2069112407        3.2337980335        6.6361402012
  H         9.9417091900        1.6923309579       10.5554123828
  H        11.0068079346        1.6940385850        9.1368759474
  C        11.3756428901        3.2840463547       10.6528795907
  S         9.1167967978        7.0678155553        9.8685888385
  C         8.3969182840        6.1739197058       11.1724638433
  H         8.1866834215        3.9517032808       11.6110797842
  C        10.2364102688        5.7896071138        6.6145351865
  H        10.0978705421        2.1420745382        6.5206129634
  C        10.5761394066        3.8588449989        5.4423917777
  H        10.9477949986        3.5857501314       11.5794984236
  H        11.6665361735        4.1105262566       10.0809978020
  C        12.6572751847        2.5483436939       10.9947721770
  C         7.9455604712        6.8323254203       12.4572099886
  C        10.6396093631        5.2234025889        5.4249592519
  H        10.1887976899        6.8589538022        6.5615520184
  C        10.9336812081        3.4944638044        4.1476657932
  H        13.4968497994        3.2018141183       10.8164855284
  H        12.9571502835        1.6738892243       10.3839932071
  C        12.6248772945        2.0457310691       12.4583336779
  C         7.9064838413        8.2457569545       12.7789329731
  C         7.4293607050        5.9810211381       13.5388832722
  C        10.9569587319        5.9686739547        4.1711371773
  C        11.0931893476        4.6343318477        3.3385483079
  S        11.1326559443        2.0302738220        3.2902307220
  H        11.7250531247        1.4693276599       12.8028298370
  H        13.4862706667        1.3483305586       12.4148062049
  C        13.0542639171        3.1612692382       13.3787643575
  N         8.2488132157        9.2884747180       11.9426217936
  C         7.5915453068        8.7281208974       14.0397995039
  C         7.2120272362        6.4544629218       14.8157276099
  H         7.4341405166        4.9353572466       13.3153688642
  C        12.3465388831        6.6915809110        4.2809929957
  C         9.8129165283        6.8753835680        3.6102787543
  C        11.3189698413        4.2694793863        1.9687836955
  C        11.3108343422        2.8929109912        1.8733890848
  H        12.2704655144        3.7931446413       13.8045386828
  H        13.6767304698        3.9046036045       12.8970825563
  C        13.7409664353        2.4318468321       14.6019541579
  S         8.1792292269       10.7320069319       12.7146799561
  N         7.6702892377       10.1371236981       14.1489520443
  C         7.1933780952        7.9097969769       15.1092537542
  H         6.8209151102        5.7417578994       15.5690415843
  H        12.2744691406        7.4871538705        5.0196446452
  H        12.5692016111        7.1052848129        3.2896667656
  C        13.6083779648        5.8786471088        4.6523877177
  H         9.5658200474        7.6391956989        4.2898873391
  H        10.2839595063        7.3764434231        2.7976357096
  C         8.6138110242        6.1282192553        3.0909353668
  H        11.5859491229        4.9840152886        1.2626936317
  C        11.6360456601        2.0503372489        0.7099690087
  H        14.4385254907        1.6277602639       14.3351461218
  H        14.3565071193        3.0761047348       15.2581201358
  C        12.6197051839        1.9203446039       15.5273330599
  C         6.9296540701        8.4831465914       16.3603737062
  H        13.4065524233        5.2661228028        5.5126917302
  H        13.7830723257        5.0788119115        3.8370799804
  C        14.9890009142        6.5958788449        4.6063824580
  H         8.3235314133        5.4423700466        3.8721781368
  H         8.8966366915        5.5544565670        2.2284397181
  C         7.4540286955        7.0669085562        2.8217272896
  C        11.9573094153        0.6540471535        0.6009965748
  C        11.9406488229        2.7491757676       -0.5501634991
  H        12.8969173973        0.9512139651       15.7500470621
  H        11.5980306934        1.9312257141       15.1277878685
  C        12.6791328484        2.6733723978       16.8464929374
  H         6.7598881313        9.5146377330       16.2797748286
  C         6.5923487415        8.0336782948       17.5643831919
  H        14.9560903004        7.3316581931        5.3596371755
  H        15.0980207220        7.2053142771        3.7202955110
  C        16.2825185396        5.6641632977        4.8157967646
  H         7.3641542209        7.6933412888        3.6635524301
  H         7.7512118879        7.7771126445        2.1218295207
  C         6.1041294888        6.3916926930        2.5197498915
  N        11.6214698913       -0.2683956200        1.6060710197
  C        12.3188489020        0.0545964197       -0.5654754412
  C        12.3981309940        2.1673066395       -1.7019238262
  H        11.5978859033        3.8075078530       -0.5288041332
  H        13.4880882754        2.2738723576       17.3869021477
  H        11.8222767893        2.5746168627       17.4790055642
  H        12.8786726817        3.7504254847       16.8595231023
  S         6.3902684962        6.4217009386       18.0594884607
  C         6.3971196939        9.0670880143       18.6270157454
  H        16.2101635615        5.1151463220        5.7015804990
  H        16.3836415282        4.9419388666        4.0295028029
  C        17.5779424104        6.4259572693        4.9992868342
  H         5.3943843111        6.4877484806        3.3059322432
  H         6.2427706710        5.3458647979        2.3795874192
  C         5.4376483931        7.1470310209        1.3500002595
  S        11.8345148757       -1.7463381096        1.0611960037
  N        12.3688187503       -1.3523725432       -0.4278268758
  C        12.5579018384        0.6834576350       -1.7803121729
  H        12.4858412656        2.7042744473       -2.6156291104
  C         6.0390947585        7.0653297812       19.6688419725
  N         6.1628319672        8.4420162010       19.7708395497
  O         6.6151439067       10.2662049033       18.5053486626
  H        18.2076669910        5.9822763129        4.2557600814
  H        17.5446651904        7.4995414594        4.7239485248
  C        18.0560709660        6.0416250537        6.4141242767
  H         6.0819502309        7.0025974018        0.5373741714
  H         4.5552521682        6.5335708091        1.1135676155
  C         4.8916761201        8.5824591935        1.6529994407
  C        12.9131500592        0.0096645130       -2.9582909923
  S         5.4344940596        6.0933032090       21.0607399359
  C         6.1122679166        9.2431743525       21.0170856311
  H        17.1852071871        6.3746088137        7.0674093048
  H        18.1639030854        5.0124239063        6.4636837233
  C        19.3354803893        6.6977878703        6.8759373316
  H         5.5061087464        9.0175809744        2.4364667958
  H         3.8566930424        8.6124808348        1.9512741263
  C         4.9486649007        9.4793664479        0.3776674116
  H        12.6904409798       -1.0906691993       -2.9391952325
  C        13.4320134199        0.3687389544       -4.1372544165
  H         5.4304666207        8.8512558871       21.7343850749
  H         5.7525217837       10.2842713473       20.7970886686
  C         7.5605944953        9.3078946590       21.4840025249
  H        19.4293226123        6.5966969852        7.9591172796
  H        19.4539943932        7.7425126948        6.7957113092
  C        20.4845524058        6.0940894299        6.0653890593
  H         5.9889343873        9.6104662215        0.0449100613
  H         4.2397539717        9.0119591978       -0.3703978357
  C         4.6190836671       10.8845246932        0.7506241264
  S        14.0328530711        1.9538855489       -4.3690034224
  C        13.5260962390       -0.4847638618       -5.3099150192
  H         7.9923532362        8.3102574230       21.6966543399
  H         7.5998331435        9.8815458871       22.4094847889
  H         8.1068088412        9.7489626300       20.6551637918
  H        20.4220332766        4.9917879464        5.9066594751
  H        20.6264254244        6.6591867294        5.0747542850
  H        21.3825227502        6.3277903217        6.6108198554
  H         5.4518666721       11.5363689120        0.5882957642
  H         3.7734856976       11.2174045490        0.1916225364
  H         4.3085279939       10.8764926947        1.7944046076
  C        14.3861421022        1.5130380738       -6.0482810587
  N        14.0969971759        0.2196326045       -6.2548113843
  O        13.1246436861       -1.6683348925       -5.3679467194
  S        15.0462005369        2.4468703033       -7.3028585627
  C        14.2804858145       -0.4194399600       -7.6439895856
  H        14.7235812481       -1.4817905455       -7.5159916447
  H        15.0002734640        0.0381938852       -8.3013090327
  C        12.9201206822       -0.3439797393       -8.4909519868
  H        12.7436359517        0.7259211710       -8.8703744238
  H        12.0888869504       -0.6004534881       -7.8593742242
  H        12.9736769068       -1.0148399916       -9.3555719641
