352
 i =    74000, time =    37000.000, E =        98.7564215418
  H        12.1343300213        7.0394421701       32.5330762373
  C        11.9646319084        5.9498136119       32.5382129745
  H        12.9174870699        5.4100532979       32.3170578102
  C        10.8740062142        5.6312103433       31.5242863798
  C        11.5640102032        5.5165859532       33.8803296931
  C        11.4736180687        5.8255167688       30.0600361963
  H        10.4504209899        4.5942711442       31.6283899587
  H        10.0987288060        6.4630377302       31.6721689661
  H        11.9302548132        4.5297046680       34.0407501464
  H        11.9484962580        6.0713204573       34.7255334113
  H        10.4893622724        5.4434941054       33.9151762253
  C        10.4671035209        5.8809166812       28.8478489700
  H        12.1500951188        4.9623926034       29.8551614472
  H        12.0774090491        6.7175862695       30.0316949588
  C        11.0407251862        5.8463369743       27.4231607959
  H         9.9475086218        4.9589007702       28.9777655264
  H         9.8235569294        6.7786669138       28.8805977062
  C        10.0297065013        5.2577010378       26.4179117695
  H        12.0114412368        5.2819566482       27.3479809757
  H        11.3021887791        6.8126884703       27.1201759678
  C         8.8005656496        6.1646552006       26.1973991655
  H        10.5037847132        5.2073760183       25.5253363999
  H         9.7923613619        4.2534485729       26.7656638874
  C         7.6235988117        5.3699543725       25.6664614094
  H         8.5802380178        6.7503471713       27.1419494482
  H         9.0239800069        6.9666665192       25.4780914340
  C         7.2901368684        4.1099590791       26.4003318797
  C         7.9674254944        4.6433079325       24.4132720564
  C         6.3217611879        6.1993774884       25.5331384315
  C         7.4197914162        2.9627431799       25.6690163368
  C         6.7446214924        3.7996235747       27.6785737112
  C         7.8976545423        3.2931214407       24.3726049281
  C         8.5058996940        5.1682599727       23.2370193368
  H         6.6376379598        7.1056038395       24.9642127719
  H         6.1235481167        6.5574796021       26.5282678834
  C         5.0487871797        5.4669075175       24.9746171030
  S         6.9968193536        1.4974583698       26.4719544102
  C         6.6460764652        2.4472476401       27.8742667576
  H         6.4673162254        4.6832162966       28.3184144513
  C         8.2537876710        2.5157045659       23.3301436242
  H         8.4415788732        6.2012476894       23.0358139414
  C         8.8512056247        4.4296703862       22.1247535658
  H         5.1473255129        5.2545353011       23.9316518598
  H         4.8194537933        4.5450235836       25.4783859495
  C         3.7533653957        6.3278522901       25.1643713404
  C         6.2924350814        1.7690595045       29.1163958675
  C         8.7874918762        3.0606094484       22.1507560526
  H         8.0482901141        1.4748046307       23.2627982845
  C         9.1895608197        4.6880249065       20.7994922951
  H         3.0699444802        5.9197671233       24.4509221657
  H         3.9254927485        7.3715234205       24.8685950486
  C         3.0669491142        6.4547724283       26.5848979775
  C         6.3160616774        0.3647194735       29.4690885000
  C         5.7115851706        2.6456341112       30.2134657397
  C         9.1201453939        2.2735487989       20.9469677065
  C         9.2931916532        3.5710330977       20.0906967054
  S         9.3114073112        6.1896266216       19.9206669907
  H         2.4936592588        7.3250577001       26.7223942684
  H         3.8689974974        6.4984770785       27.3407396036
  C         2.1702058373        5.2892412950       26.8698853927
  N         6.7967972834       -0.6376657612       28.6185566945
  C         5.9454571961       -0.1170245058       30.6894990501
  C         5.5238587556        2.1120087854       31.4845009223
  H         5.5319850150        3.6725453034       30.0134758897
  C         7.9801783234        1.4296729852       20.4639139154
  C        10.3644945248        1.4049075007       21.0821750291
  C         9.6818122868        3.8897284893       18.7511578370
  C         9.7592720903        5.2625935585       18.4880724179
  H         1.5757091909        4.9936516980       26.0117145685
  H         2.8101877259        4.3911592805       27.0903043053
  C         1.3997035777        5.5786050498       28.1123658464
  S         6.5453725213       -2.0718635542       29.3178570698
  N         5.8954660819       -1.5144677147       30.6906754250
  C         5.5408060927        0.6892704057       31.7526191025
  H         5.2033353917        2.7795350313       32.3006766444
  H         7.8642117115        0.7240971346       21.2651858506
  H         8.2679594094        0.9135706715       19.5634670736
  C         6.6152762639        2.2083480855       20.1612115125
  H        10.4838972873        0.6779238403       20.3070965001
  H        10.2152834827        0.8491976155       22.0063973889
  C        11.6953085992        2.1841843649       20.9662721511
  H         9.8169258057        3.1046857864       18.0582696623
  C        10.1099371509        5.9101671356       17.1628999497
  H         0.8626157551        4.7045510831       28.2712522656
  H         0.6387455743        6.3490953008       28.0068129989
  C         2.1341791202        5.7080791397       29.4094274304
  C         5.2443816745        0.0899782874       33.0197790196
  H         6.8828320183        3.0331518413       19.5099358753
  H         6.1794935528        2.7452319323       21.0572104708
  C         5.4739487124        1.3062365702       19.6300932674
  H        11.6433207849        2.9978786799       21.6530647270
  H        11.8127050140        2.7460197564       20.0640029712
  C        12.9664652664        1.4367044291       21.3338547185
  C        10.0741211239        7.3351620194       16.9141294498
  C        10.3918757238        5.0677251204       15.9324299073
  H         2.7885144083        4.9156195828       29.6845013284
  H         2.7599640684        6.5744703592       29.4872065646
  C         1.1636564959        5.9425774292       30.5741523141
  H         5.5069086123       -0.9546219105       33.0563074399
  C         4.7656500054        0.5279764198       34.2368159203
  H         5.0666144020        0.7790919270       20.5002248327
  H         5.8129421576        0.4928635052       18.9959757147
  C         4.3882815362        2.2035831956       19.0649498453
  H        12.8506900954        1.0789900736       22.4104951354
  H        13.2019057345        0.5957436133       20.7611205352
  C        14.1400061765        2.3688804498       21.3664751901
  N         9.8925076234        8.2298223749       17.9291699170
  C        10.4349521797        7.8629492388       15.7364561974
  C        10.7483498208        5.6362030726       14.7090532152
  H        10.3546939421        4.0161195576       16.0489416569
  H         0.5756760762        6.8393720120       30.3913047618
  H         0.4709291856        5.0743700202       30.7087718148
  H         1.6752491176        6.2285190052       31.4615316525
  S         4.3093371718        2.1352863100       34.6663009288
  C         4.7483539182       -0.4631052482       35.3438271033
  H         4.0489221573        2.8385457450       19.8505575429
  H         4.6987097429        2.7657738896       18.2287780763
  C         3.1258549719        1.3371351999       18.7097783921
  H        14.1012917279        3.1426490291       20.6125259080
  H        15.0899458836        1.8387334251       21.3001468374
  C        14.3288918343        2.9519200259       22.7351951678
  S        10.0316353740        9.6947444706       17.2787563008
  N        10.4294596933        9.2472979465       15.7628801365
  C        10.8533365839        7.0812828256       14.6438513263
  H        11.1588170321        4.9715998981       13.9838742844
  C         4.1091166327        1.5841484748       36.3605413197
  N         4.3934246491        0.2808920327       36.4938815378
  O         5.1142684269       -1.6021005283       35.2242533282
  H         2.2871334336        1.9578845973       18.4253878248
  H         2.8577367640        0.9039513189       19.6610748017
  C         3.2318848733        0.3088656661       17.5531690428
  H        13.4007494642        3.3938820949       22.9773588905
  H        14.4875226434        2.0973462008       23.4466659360
  C        15.4925236017        3.9365419763       22.8193228589
  C        11.1684928824        7.7870256745       13.4456986358
  S         3.5189340658        2.4256764921       37.7882157234
  C         4.4881114893       -0.4141465130       37.7991997077
  H         3.1408846340        0.7780970829       16.6054020979
  H         4.1468039831       -0.2206995422       17.4522623478
  C         2.1734245038       -0.7954520794       17.4115091050
  H        15.7126857015        4.1704257006       23.8456147845
  H        15.2700026890        4.8365557010       22.2907853886
  C        16.8937858631        3.4243120486       22.4792684586
  H        10.7867529635        8.7469780027       13.3923367737
  C        11.7028972312        7.4730493703       12.2114787973
  H         3.8681616775        0.0683912902       38.5239186052
  H         3.9679352836       -1.4078624613       37.6573859659
  C         5.8322961399       -0.6309861373       38.5070676650
  H         2.0676024072       -0.9603007697       16.3451658851
  H         1.2618282644       -0.4470209323       17.8474431684
  C         2.5453928271       -2.1604409209       18.0200289433
  H        17.1097996783        3.0781477171       21.4645908641
  H        17.6560302122        4.2614763539       22.5226556816
  C        17.3676112361        2.2935807042       23.3632805157
  S        12.4433620445        5.9341299599       11.8025358492
  C        11.6590204865        8.4717424890       11.1131521303
  H         6.0001835991       -1.6768265251       38.8748558396
  H         6.6487525924       -0.2661074657       37.8674494945
  H         5.9313455400        0.0265836886       39.3211517694
  H         3.2139798258       -2.6607938510       17.3400851870
  H         1.5838608887       -2.6095872755       18.0660232854
  H         2.9900068645       -2.0311852403       19.0264644391
  H        18.3566140648        1.9735658496       23.0019416678
  H        16.7263567256        1.4470947126       23.3682141869
  H        17.5927924249        2.5870631734       24.3913477077
  C        12.6316983040        6.6631568504       10.2177763916
  N        12.3869129522        8.0062651557       10.0594106636
  O        11.2676388678        9.5971204759       11.2401901982
  S        13.5919620841        5.8569152039        8.9642974989
  C        12.5252893687        8.7956934409        8.8678608520
  H        12.7911817164        9.8092996383        9.1589472769
  H        13.3871853200        8.5257166093        8.2177034139
  C        11.2147067510        8.7344652961        8.0509351822
  H        10.9173269412        9.7888200496        7.9605896493
  H        11.3010292158        8.2494374949        7.0909330422
  H        10.4618766185        8.1553575139        8.5342470087
  H         2.0226347216        1.5593163561       12.7020788400
  C         2.9536810022        2.1561907611       12.5742116570
  H         3.8323780080        1.5824503391       12.3715473984
  C         2.7861870444        2.9894866624       11.2995736097
  C         3.1598582033        3.0263166077       13.8071488429
  C         4.1394398667        3.1526101759       10.6512657926
  H         2.3356537453        4.0158775511       11.3868596588
  H         2.0449098487        2.3646359895       10.7680760573
  H         2.8379622603        2.3860460366       14.6461624791
  H         2.6029069778        3.9055697721       13.6197841867
  H         4.1633654772        3.3776973492       13.9485896454
  C         4.6180718033        1.8118724820        9.9417128768
  H         4.0235187956        3.9996136827        9.9208241726
  H         4.8429602404        3.5104317833       11.3917284045
  C         5.0719482450        2.0081709203        8.5010944852
  H         3.7947492749        1.1097925058        9.9029360237
  H         5.4278809862        1.4253494406       10.4911527927
  C         6.4532749914        2.6939512065        8.4947532396
  H         4.4336020029        2.7544809724        7.9872757895
  H         5.0430672280        1.0047704597        8.0658394042
  C         7.6464342505        1.9735319825        9.1155077102
  H         6.7298151516        3.0470896314        7.5158021614
  H         6.2567851158        3.5852036592        9.1552627013
  C         8.9451662518        2.8304051143        9.1802526655
  H         7.6926233832        1.0807322961        8.4241162109
  H         7.4281752201        1.5111187967       10.0799175574
  C         8.7013282923        4.1455203705        9.8432797874
  C         9.4618784969        3.5985761606        7.9787962712
  C        10.0448164184        2.0127074449        9.9423417841
  C         9.0040457128        5.2904771490        9.1423053626
  C         8.1238097278        4.4397966328       11.0769131697
  C         9.4283108324        4.9560040957        7.9039620652
  C         9.9746863364        3.0824298134        6.7969250559
  H         9.4812972534        1.8120435779       10.8811830131
  H        10.3785739517        1.0100896952        9.6304398025
  C        11.2794680435        2.8546619836       10.2912706390
  S         8.5046406949        6.7737385126        9.9673822220
  C         8.0263037252        5.7614863742       11.3247506372
  H         7.7766253772        3.6649134262       11.7192012328
  C         9.7463999522        5.6787139105        6.7692002229
  H        10.0942817854        2.0210958188        6.8025073648
  C        10.3617219292        3.7391878815        5.6951078599
  H        10.9744123265        3.6059443456       10.9914001499
  H        11.8052313299        3.3884076074        9.4839760438
  C        12.3912151808        2.0200463297       10.8992283246
  C         7.6396192759        6.3901937443       12.6373578772
  C        10.2876342695        5.0651668555        5.6440964862
  H         9.7404021844        6.7574782963        6.8552156490
  C        10.8220635297        3.2772914833        4.4819689053
  H        13.2970903868        2.6017470892       10.7127307523
  H        12.5125671875        1.1212730032       10.3424558066
  C        12.1736308479        1.8555191498       12.3917982033
  C         7.7776744046        7.7890290132       12.9328379058
  C         7.2589083845        5.5838244810       13.8239741508
  C        10.8030294129        5.6989776556        4.4218790482
  C        11.1154690319        4.3678211533        3.6762818994
  S        11.0658081428        1.7255289756        3.7517420349
  H        11.6124737670        2.6763324001       12.8466486647
  H        11.5172568864        1.0239204487       12.5247732345
  C        13.4455423292        1.5784292462       13.1834819929
  N         8.1410567930        8.7788840756       12.0069983359
  C         7.4564229479        8.3722946815       14.1453219414
  C         6.8967546930        6.1913839414       15.0417559592
  H         7.1985491158        4.5222443492       13.7013193901
  C        12.1250480893        6.5155679311        4.7079761573
  C         9.7599903428        6.4664831564        3.5684096041
  C        11.4513510242        3.8889953672        2.3955808641
  C        11.4813970018        2.5766339259        2.2963996536
  H        13.9852537165        2.4834371035       13.5050155209
  H        14.2799129704        1.1221899648       12.6615084725
  C        13.2218159337        0.8110651607       14.4747240834
  S         8.1684132788       10.2573039392       12.6953154021
  N         7.8103541339        9.6859629408       14.1529307282
  C         7.0421977330        7.6465283861       15.2366152337
  H         6.4760544045        5.5981120904       15.8282934598
  H        11.9389580679        7.3676087141        5.3131628784
  H        12.3481540338        6.9133234329        3.6821944588
  C        13.1722503225        5.5844014771        5.2761480243
  H         9.5000109116        7.3705138796        4.0982534184
  H        10.2245304599        6.8031264735        2.6188183374
  C         8.5218925504        5.6491616582        3.0999103675
  H        11.6041962766        4.6333221164        1.7034968715
  C        11.6967431443        1.8218471798        1.0158776350
  H        12.8381025891       -0.1806725053       14.1947632641
  H        14.1360354643        0.7828214708       15.0874110173
  C        12.1000399966        1.3523492958       15.2894514317
  C         6.9000790362        8.3293980869       16.4791760548
  H        12.7745083227        5.2333778798        6.2120590065
  H        13.5131206047        4.8262929887        4.6221401427
  C        14.4324645305        6.3809572270        5.5819935899
  H         8.1031961220        5.2373994126        4.0237114279
  H         8.8448855685        4.8301117601        2.4738293110
  C         7.3730765392        6.3270606322        2.2692267177
  C        11.6670444329        0.4228530712        0.8465898820
  C        11.9304014372        2.5385295592       -0.1977881185
  H        11.3001358002        0.7029466172       15.5248376321
  H        11.5506309595        2.0876618807       14.6891352524
  C        12.6451352484        2.0357200841       16.5902519754
  H         6.8362903512        9.3956804613       16.3704786990
  C         6.6622951636        7.9088416681       17.7916295063
  H        14.1236606037        6.9827269342        6.4507332497
  H        14.6803883601        6.9937076290        4.7333287711
  C        15.6172755894        5.4562884918        5.9331923408
  H         7.3311327333        7.3113679013        2.7165747673
  H         7.7418720123        6.4487705815        1.2456273830
  C         6.0355479940        5.5730753793        2.2134708256
  N        11.4855123630       -0.5822364912        1.8571388870
  C        11.9278798143       -0.2013562418       -0.3376435652
  C        12.1020328478        1.9592574803       -1.4640045541
  H        11.9498155980        3.5775077411       -0.0752188556
  H        13.5284482411        2.6888709140       16.2313691281
  H        13.0884140945        1.4112031041       17.3381784324
  H        11.9736280893        2.6867592090       17.0743541541
  S         6.2740475679        6.2896639790       18.3010142593
  C         6.6239037227        8.9823864335       18.8113309796
  H        15.3013869560        4.7279845779        6.6622465540
  H        15.8904606072        4.9061633170        4.9759832534
  C        16.8159441485        6.2542283725        6.4913161262
  H         5.8861650230        5.3394841500        3.2392936626
  H         6.0865857823        4.6173160773        1.7142644060
  C         4.8975228581        6.4772607027        1.6813321469
  S        11.6633206104       -2.0772429920        1.2678510272
  N        11.8203989605       -1.6076800373       -0.2928716500
  C        12.2282050323        0.4327390653       -1.5618129268
  H        12.3900473713        2.6621527401       -2.2554614228
  C         6.1404749976        7.0488540501       19.8869004298
  N         6.2040248147        8.4085009661       19.9685545105
  O         6.8937229043       10.1545369996       18.5507333055
  H        17.3090522921        6.8492719576        5.6695881976
  H        16.4059172174        6.9204332864        7.2857003051
  C        17.9051979001        5.2289766345        6.8626513247
  H         5.0101256499        6.4693829474        0.5736361383
  H         3.8714956489        6.0867413292        1.8131234759
  C         4.9509394637        7.9605117056        2.1440399147
  C        12.5456637883       -0.3350208703       -2.7412291494
  S         5.9652907985        6.1530041398       21.4626505366
  C         6.2337050495        9.2301859381       21.2447397204
  H        17.7080404458        4.8046622742        7.8459195732
  H        17.9497403867        4.4069158595        6.1390931957
  C        19.2671856444        5.8211832743        6.9079978667
  H         5.7791725664        8.4875164914        1.7143594060
  H         4.9077328593        7.9882752608        3.1928570029
  C         3.7213376570        8.6791131088        1.7360617791
  H        12.4849419834       -1.4267007599       -2.6402451794
  C        12.8282351664        0.1099828698       -4.0150535540
  H         5.6011973302        8.9061847631       21.9728546355
  H         5.8645097523       10.2213266099       20.9705985490
  C         7.7321238885        9.2828096275       21.6579451325
  H        19.8698651942        5.3419335691        7.6749679649
  H        19.1078843160        6.8952634127        7.1198394211
  C        20.1298285959        5.6893490540        5.6935332630
  H         3.5768847200        8.5438516086        0.6658534871
  H         2.7759231709        8.2301456938        2.2066388446
  C         3.8386261340       10.2080659206        2.0007579541
  S        13.1782650526        1.6873018189       -4.6495027623
  C        13.0292633333       -0.9321015102       -5.1126299304
  H         8.1764692453       10.2842266718       21.5512672440
  H         8.2771092115        8.6415767290       20.9716338994
  H         7.9252353474        9.0283980714       22.7093290965
  H        20.7698609897        4.8192124258        5.7868958789
  H        19.6433651230        5.7920979966        4.7039025075
  H        20.9199763948        6.4640232263        5.7421451798
  H         3.1970741009       10.8891170055        1.4512192086
  H         3.5161064936       10.2349585002        3.0084183167
  H         4.8527086861       10.4900800877        1.8521171165
  C        13.5508810156        0.9500996657       -6.2193370968
  N        13.5362499706       -0.3495684696       -6.2305015615
  O        12.9615242393       -2.1703586545       -4.9488984222
  S        14.2066002581        1.8606259435       -7.6337239392
  C        13.8421542162       -1.1728907212       -7.3556504098
  H        14.0485526593       -2.1761683894       -6.9754365622
  H        14.8431886179       -0.9303787782       -7.8201261287
  C        12.7109427915       -1.2656545482       -8.3242601959
  H        11.8855348079       -0.7352283200       -7.8792619268
  H        12.5419896585       -2.2353250335       -8.4451926670
  H        13.0448479364       -0.8095668841       -9.2548154763
