352
 i =    96700, time =    48350.000, E =        98.5721941675
  H        12.3000996082        5.7502835429       32.9559615368
  C        11.2892314496        5.5787766137       32.7928701887
  H        11.2529326111        4.4851000395       32.5902327034
  C        10.6954356977        6.3149734452       31.5726239007
  C        10.4691178817        5.9134130123       34.0959759396
  C        11.3702947363        6.0421628012       30.2878073410
  H         9.6025967346        6.1968937082       31.4160225559
  H        10.8621646235        7.4130034008       31.6230880345
  H        10.6616649183        4.9978720840       34.7302526954
  H        10.9442379635        6.7682071122       34.5733542629
  H         9.4082805962        6.0023751298       34.0122748710
  C        10.4410463942        5.4352617970       29.1949653338
  H        12.2790618473        5.4525073014       30.5061081656
  H        11.7421833664        6.9709579316       29.9089694270
  C        10.7579797605        5.7730435885       27.7318492752
  H        10.4457214767        4.3367483982       29.2848525226
  H         9.3560290893        5.5031150010       29.2865572845
  C         9.7394679357        5.1010487892       26.7776496493
  H        11.7195856108        5.3246168004       27.6499227011
  H        10.8499098544        6.8422277465       27.5079150103
  C         8.4431543422        5.8539024932       26.5091037105
  H        10.1617076767        4.9116313859       25.8576271940
  H         9.6098022777        4.2034525757       27.1853079268
  C         7.3660094186        5.3539644774       25.5242404784
  H         7.9610968609        6.1624462951       27.4486222894
  H         8.7231113305        6.7302398497       25.9492397256
  C         7.1202895218        3.9883207312       26.1793544022
  C         7.8772656235        4.5953635366       24.3200256543
  C         6.1195546074        6.2157751831       25.3502394884
  C         7.3368541616        2.8349194792       25.3791282654
  C         6.5583786918        3.5872650167       27.4191562176
  C         7.8961403777        3.2381387294       24.1849619041
  C         8.1807514067        5.2031624209       23.1317249038
  H         6.3420547053        7.1241994847       24.8006115762
  H         5.9595538994        6.4988547821       26.4117989623
  C         4.9532478000        5.3534942173       24.8399771610
  S         6.8532228424        1.3595467784       26.0329498662
  C         6.5107661711        2.2039870761       27.5050328766
  H         6.1175779710        4.3405445311       28.0462246290
  C         8.3472172364        2.6660593242       23.0523461253
  H         8.0101449283        6.2423281843       23.1784194170
  C         8.6093133113        4.6940938152       21.9499594038
  H         5.1060607618        4.9487906202       23.8243087506
  H         4.7566953800        4.3855699760       25.4382053233
  C         3.6604676232        6.1126763665       24.7295601060
  C         5.9902382677        1.4698234085       28.6894423668
  C         8.6376205650        3.3315945624       21.8217696096
  H         8.3990448583        1.5666051401       22.9889288294
  C         9.0507898238        5.1819192199       20.7359343493
  H         2.9906787087        5.5298359091       24.1822214844
  H         3.7006040142        6.9540733279       24.0750824166
  C         2.9354552266        6.4821448675       26.0146877376
  C         6.0538617212        0.0650323159       28.9091892588
  C         5.5117094545        2.2821667001       29.8120352355
  C         9.1514434295        2.7172823404       20.5773053367
  C         9.4217807534        4.0888356082       19.9715862077
  S         9.1442105089        6.7031939768       20.0255206159
  H         2.0912003399        7.1525035848       25.7455003435
  H         3.5238845845        7.1092131794       26.6986034736
  C         2.3925604760        5.3305146484       26.8749646608
  N         6.2968725091       -0.8746152688       27.9128687182
  C         5.6909050602       -0.4633172195       30.1384785339
  C         5.2148408760        1.7432252720       31.0796070769
  H         5.2350949903        3.3165390872       29.6385964723
  C         8.0101871849        1.9093358223       19.8677515899
  C        10.4722139331        1.8230664403       20.8960079325
  C         9.7105010094        4.4983409886       18.6357564407
  C         9.6714221044        5.8828533541       18.5992713302
  H         1.9373778242        4.6611097100       26.2322601320
  H         3.2524713285        4.7068510935       27.0981827692
  C         1.4142865930        5.6893412857       27.9950806579
  S         6.0445179981       -2.3332259721       28.5372216292
  N         5.7055290376       -1.9108495138       30.1154365257
  C         5.3711887081        0.2688870473       31.3126063370
  H         4.8179872773        2.4335584889       31.7890588016
  H         7.7119826598        1.2314231117       20.6693143677
  H         8.4701293901        1.3663560996       19.0419158998
  C         6.8231424153        2.7140001801       19.4508957988
  H        10.7096238490        1.4312541849       19.9193928541
  H        10.2848317662        0.9373506262       21.4555998044
  C        11.5962856629        2.6443663280       21.4552215009
  H         9.8548226411        3.7772544902       17.8376603139
  C         9.8949305975        6.5968404554       17.2977179260
  H         0.7288540460        4.8882529363       28.2307211533
  H         0.7735061848        6.4919983497       27.6100282048
  C         2.3544272687        5.7788375311       29.2514034109
  C         5.1044098180       -0.3965332712       32.5937905541
  H         7.0274740617        3.7492177064       19.2860259508
  H         6.1768922814        2.6968181573       20.2802519427
  C         5.9378018434        2.2354180089       18.3295016106
  H        11.4679689254        3.1867062581       22.4607819244
  H        11.9754888892        3.3499248012       20.7283359327
  C        12.8219731002        1.8048716778       21.5743152115
  C         9.9638827732        7.9583796641       17.1087687052
  C         9.9852527880        5.7679876211       16.0422359423
  H         3.0902812896        5.0080142856       29.1834427642
  H         3.0620985603        6.5825193137       29.2692759907
  C         1.7522842785        5.6237165782       30.6181962118
  H         4.9656430073       -1.4439200328       32.5170465998
  C         4.6842674162        0.1211239613       33.8075668767
  H         5.7998083607        1.1311510877       18.2927746682
  H         6.6030034338        2.2490625151       17.4505417826
  C         4.6447143873        3.1189063951       18.2091694244
  H        12.7589785466        1.2213954949       22.5421394624
  H        12.8745798696        0.9821252231       20.8493037253
  C        14.0667060000        2.6458316947       21.6762000696
  N        10.0425122759        8.8963560323       18.1322249091
  C        10.3929917012        8.4865964156       15.9464400666
  C        10.2812865904        6.4200896769       14.8549805250
  H         9.7829743084        4.6933171503       15.9846465583
  H         2.2227821318        4.9333040890       31.2110612688
  H         1.8866586681        6.5626767984       31.0986498086
  H         0.7086922852        5.4171807329       30.5965949608
  S         4.1648743836        1.7043845120       34.2477874732
  C         4.6015636125       -0.8193084576       34.9735894873
  H         4.3072893928        3.6308187733       19.1536104375
  H         4.8745649203        4.0712934141       17.6924453020
  C         3.5296307684        2.4054636885       17.4538673317
  H        13.7748599007        3.4823148649       22.2802562432
  H        14.3607247545        3.0884248300       20.6781339284
  C        15.3262940942        1.9336057925       22.2354548492
  S        10.3172810756       10.3833321847       17.5855029729
  N        10.5849987866        9.8713572864       16.0733514923
  C        10.4863056962        7.8134307323       14.7193280942
  H        10.3186790829        5.8500801427       13.9268560295
  C         4.1426469940        1.1728637861       35.8795922118
  N         4.1001497623       -0.1914408344       36.0703855008
  O         4.7484847143       -2.0508869635       34.7716159882
  H         3.6344258325        2.2218299624       16.4346596039
  H         2.7404345510        3.2003239769       17.5153452397
  C         2.9711946971        1.2057783703       18.2489660644
  H        15.0779946613        1.5666802623       23.1933743864
  H        15.6524664920        1.0748258588       21.6351298701
  C        16.4983254515        2.9028309792       22.3823258943
  C        10.9178072045        8.6103628803       13.6442557411
  S         3.6320104167        2.2207256016       37.1775393487
  C         4.0330386146       -0.8904267573       37.3361313195
  H         3.7381940590        0.7417848562       18.8599687540
  H         2.1652827687        1.5956018307       18.7863344165
  C         2.5177156077        0.1534763895       17.2197866519
  H        16.1670626388        3.6762981644       23.0818436723
  H        16.8531648854        3.3647330457       21.4609007292
  C        17.7519642675        2.1646772718       22.8771774174
  H        10.9283138804        9.6654111106       13.7553121012
  C        11.4315227676        8.2718136509       12.4544503113
  H         3.3751502801       -0.3399930379       37.9893088097
  H         3.4839506018       -1.8243284323       37.1033693461
  C         5.3796738477       -1.0544125995       38.0519440526
  H         3.3894148173       -0.2912034962       16.6964069203
  H         1.9789129436        0.7329236549       16.4064571871
  C         1.7464797438       -0.9056560400       17.9603659567
  H        18.1291266931        1.3322069672       22.2938450046
  H        18.5596852310        2.8709666974       22.8488198651
  C        17.7105261858        1.6036453919       24.3073875861
  S        11.6645911218        6.5906969255       11.9687650632
  C        11.7717725858        9.3047114156       11.4284326690
  H         6.0348325296       -1.8576107243       37.7441217237
  H         5.8760519594       -0.0899619557       37.9345819981
  H         5.2879548644       -1.1491784644       39.1546218908
  H         2.3058035876       -1.7178897309       18.4546274091
  H         1.1612370071       -1.4424948858       17.1550283699
  H         0.9775319401       -0.5037758617       18.6844070539
  H        18.5477392561        0.9505012128       24.3448506922
  H        16.8508463010        0.9989617258       24.3794137038
  H        17.6852309828        2.4649827968       25.0612720237
  C        12.1671770740        7.2680042569       10.4647251490
  N        12.2716688929        8.6437031419       10.3695034447
  O        11.6002570953       10.5222352552       11.5223388506
  S        12.7548054720        6.3446820190        9.1055426265
  C        12.5927455428        9.2700912499        9.0707114253
  H        12.9939379748       10.2257181459        9.2815378966
  H        13.4788306055        8.8093100262        8.6419526072
  C        11.4441044572        9.2974347056        8.0848379240
  H        10.9423323512       10.2463653426        8.1811552665
  H        11.7906477746        9.3155905583        7.1056169222
  H        10.8219690268        8.4702044444        8.1739883760
  H         3.4500888966        4.2133176454       11.5291884035
  C         3.0899909575        3.2204462817       11.8839242427
  H         2.0536100382        3.2643791059       11.5238919255
  C         3.7023149294        2.0178198393       11.2277969645
  C         3.0287977923        3.1322197861       13.3847573215
  C         3.8505361495        2.3277221102        9.7122151944
  H         2.9634171590        1.2703603516       11.2592257759
  H         4.5803153140        1.7083469078       11.7769876189
  H         3.9920082134        3.4184128457       13.8186221148
  H         2.7359433285        2.1194808789       13.6164051037
  H         2.2288896856        3.7861123927       13.8448609097
  C         4.5619777127        1.2295296724        8.9621612234
  H         2.8488351654        2.5188199316        9.2265046821
  H         4.2363309678        3.3355512895        9.5275666849
  C         5.4409815362        1.7019014720        7.7766964354
  H         3.8162388533        0.4518608421        8.6633147473
  H         5.2184383425        0.7899809138        9.6831276293
  C         6.6195329029        2.5931364468        8.1784414428
  H         4.8201697073        2.3027681774        7.1021088592
  H         5.8317908391        0.8195909628        7.2333481611
  C         7.7951536217        2.0240669521        8.9728835224
  H         6.9831439909        2.9078455769        7.2313029974
  H         6.3360037388        3.5253364038        8.5479279583
  C         9.0801877023        2.9176811012        9.1613163898
  H         8.2364839577        1.1784643946        8.4104010077
  H         7.4750871884        1.6017197548        9.9342198060
  C         8.6779014013        4.2950096427        9.7253512871
  C         9.5251378145        3.5400841926        7.8229996458
  C        10.2250111874        2.2416669648        9.9575257576
  C         8.9823763351        5.3372662598        8.8370879659
  C         8.3381039354        4.7420603142       10.9964433829
  C         9.4697309627        4.8895219295        7.6540698349
  C        10.0109079743        2.8621424295        6.6902051841
  H         9.9496340154        2.1395921759       10.9905118576
  H        10.3779777414        1.2364391532        9.6895711486
  C        11.4838091118        3.1103281130        9.8944392547
  S         8.7165034934        6.9114769353        9.4488126861
  C         8.2626845798        6.1379865041       10.9877939130
  H         8.2430715504        4.0642556707       11.8480929481
  C         9.9406812137        5.4851153860        6.5103364785
  H         9.9718099978        1.8514523681        6.7984241148
  C        10.4623043534        3.4165880587        5.5367648630
  H        11.2592501241        4.0888135415       10.1673010451
  H        11.8979920412        3.1069377510        8.9279016168
  C        12.5810216666        2.7137461971       10.9247236841
  C         7.8276184387        6.8607339435       12.2283414332
  C        10.4081933754        4.7774034885        5.3572040295
  H         9.9873093647        6.5570977548        6.5085101997
  C        10.7448044323        2.9868528299        4.2806674012
  H        13.6214022454        3.1514256068       10.6161532633
  H        12.6288163097        1.5917179288       10.9216630904
  C        12.3339270584        3.1807342467       12.3627438873
  C         7.8064158292        8.2813088153       12.4464150141
  C         7.2293534854        6.0579855450       13.3174884778
  C        10.9057011617        5.4248304767        4.1055975320
  C        11.0330516692        4.0233998583        3.4086230001
  S        10.9922769215        1.3595523991        3.6480860029
  H        13.2383840447        3.6386392030       12.7694628031
  H        11.6257405215        3.9982335490       12.3010523064
  C        11.8425580013        2.1106217307       13.3958512276
  N         8.1141529060        9.2070519751       11.5382227090
  C         7.5563216806        8.8318309683       13.7412236845
  C         6.9116884081        6.5899838852       14.5872502180
  H         6.8307087786        5.0452594767       13.0451147528
  C        12.2558913335        6.2179136824        4.3747701361
  C         9.8659593562        6.3225599816        3.4176445915
  C        11.3595798031        3.5370704344        2.1313949800
  C        11.4056744749        2.1285718869        2.0961433379
  H        12.5241374497        1.2416815431       13.4242457458
  H        10.8870804778        1.6735267381       13.1088282387
  C        11.6896499197        2.7348566418       14.8008733085
  S         7.9613208214       10.7169673310       12.2244910080
  N         7.6701741577       10.2190456244       13.7535963220
  C         7.1714085512        8.0096763278       14.8455840928
  H         6.4150533676        5.9801267060       15.2614497623
  H        12.0219749522        7.0706760768        5.0984447419
  H        12.6474286114        6.6491193063        3.4720999134
  C        13.3799112642        5.3972814440        5.0571384003
  H         9.5553263970        7.0402673192        4.1228045724
  H        10.3251929243        6.8890164530        2.5822692195
  C         8.5536936667        5.6237424400        2.9869261589
  H        11.6138582427        4.2794861782        1.3821822458
  C        11.6465171054        1.3771314216        0.8420141063
  H        11.6973072840        3.7799888926       14.7548288037
  H        10.7273657936        2.4806837553       15.2114573111
  C        12.8320313937        2.2388446997       15.7271870704
  C         7.0101568555        8.6295406706       16.1043023603
  H        12.9719712218        4.8527502849        5.9111508866
  H        13.7560746708        4.6701928653        4.3094499666
  C        14.5272050416        6.3167862833        5.4005171809
  H         8.2321853974        4.9309737996        3.7669995225
  H         8.7551973137        5.0162126971        2.1235119902
  C         7.3407774754        6.4409292102        2.6395671427
  C        11.8820371079       -0.0287292264        0.8319957003
  C        11.9005978575        2.1287324895       -0.3890905305
  H        13.6979079836        2.8075262627       15.4570966281
  H        13.2461900880        1.2338976806       15.6418206309
  C        12.3837281652        2.7001666034       17.1316746303
  H         7.2217477826        9.6615563685       16.1032481723
  C         6.6757720282        8.2581256951       17.3916645182
  H        14.3080177018        6.9898807384        6.2600589723
  H        14.7885748909        6.8818996070        4.4718981450
  C        15.7459906204        5.4341701621        5.7592349480
  H         7.0447797224        6.9535476838        3.4497557953
  H         7.6879044569        7.1488912790        1.9009002971
  C         6.0951555398        5.6126074241        2.1440134724
  N        11.7908381119       -0.9334253675        1.9231000139
  C        12.2634032241       -0.7203502306       -0.3159782587
  C        12.2738399820        1.4182223443       -1.5616533288
  H        11.6924010247        3.1675988902       -0.4667883133
  H        11.5699955732        2.0420055539       17.5900387599
  H        12.0668598130        3.7115015749       17.0386339244
  H        13.2090993013        2.5216905192       17.8196009955
  S         6.2884245779        6.6525950805       17.8659415082
  C         6.5967915162        9.3143826270       18.4562963776
  H        15.3374349073        4.6073508142        6.2095496395
  H        16.0953326882        5.0577347572        4.7923773433
  C        16.8349213483        6.1713456228        6.4703132950
  H         6.0680086208        4.5283764921        2.5069574140
  H         6.2388623186        5.5308503200        1.0758857880
  C         4.8046067544        6.3957978622        2.3880726519
  S        12.0975545838       -2.4577692505        1.4113275978
  N        12.5343789447       -2.0841309469       -0.0817416974
  C        12.5230134073       -0.0287849591       -1.5365212004
  H        12.4509854266        1.9492423031       -2.5083001249
  C         6.0900190490        7.3896478015       19.4877162747
  N         6.3318669782        8.7246150411       19.6191823089
  O         6.8212778690       10.5089332952       18.1682812778
  H        17.3757935415        6.8154150968        5.7496724062
  H        16.3585748105        6.8321496866        7.2219959139
  C        17.8117442494        5.2785505652        7.1675384049
  H         3.9881994935        5.7166197394        2.4527625144
  H         4.7148280940        6.9646921510        3.3658766314
  C         4.5493313585        7.2768481560        1.2081659183
  C        12.9672006943       -0.7373582794       -2.7361220474
  S         5.5791008824        6.5907009779       20.9101801962
  C         6.1675181171        9.4904127160       20.8100444179
  H        17.4643744917        4.8960340879        8.1294811096
  H        18.0735898217        4.4968716884        6.4432371141
  C        19.0121531860        6.1544696298        7.6441249374
  H         3.9138558214        6.6665778930        0.4888880820
  H         5.4904437792        7.5366407419        0.7318437893
  C         3.9201101758        8.5827468318        1.7011644955
  H        12.9413461827       -1.7935202773       -2.6658395435
  C        13.3645150120       -0.4034941670       -4.0054662841
  H         5.3239084188        9.0688539420       21.3287032592
  H         5.7863209232       10.5045747475       20.7272208572
  C         7.4222243484        9.6251780063       21.7297652796
  H        19.5679417479        5.6254645847        8.4323151574
  H        18.5170124361        7.0405496888        8.0496811743
  C        19.9542956497        6.4341711573        6.4998717537
  H         3.5068303060        9.0841148141        0.8266830745
  H         3.0480037251        8.3429646814        2.3272025792
  C         4.8877028874        9.5454793095        2.4001510412
  S        13.8335951236        1.1179357747       -4.5420552740
  C        13.5135477175       -1.5285856936       -5.0527202596
  H         7.2008472794       10.2395916492       22.5944824117
  H         8.3761580934       10.0632210825       21.3775064149
  H         7.6182027541        8.6671346766       22.2166124854
  H        19.6201123992        7.2688180664        5.8650263039
  H        20.9630291930        6.5354826999        6.8861733024
  H        20.0514494699        5.5377144129        5.8443515101
  H         4.2843715616       10.4828286215        2.5333985290
  H         5.2134866585        9.1086644021        3.3746901814
  H         5.7567657134        9.7641345563        1.8164747943
  C        14.1364844026        0.3585953417       -6.1077038285
  N        13.9863746157       -0.9846959104       -6.1897120375
  O        12.9671599648       -2.6012399636       -4.9182750269
  S        14.9121764537        1.1909557862       -7.4569757016
  C        14.0492472749       -1.7958476702       -7.3884819198
  H        14.2500115568       -2.8370880713       -7.0612989096
  H        14.8864461228       -1.4227167677       -7.9162685916
  C        12.8342292207       -1.7362931787       -8.4336122352
  H        11.9485595182       -1.3813217933       -7.9102259770
  H        12.6583823453       -2.7324608874       -8.8861227660
  H        13.1238957616       -1.0938478945       -9.2401219118
