352
 i =    60500, time =    30250.000, E =        98.0634706651
  H         9.8592830960        5.0357698128       31.7647906814
  C        10.0742449103        6.0826692652       31.8075136862
  H         9.1711992262        6.7458430563       31.6325581453
  C        11.0915755732        6.5228116708       30.6262468994
  C        10.6555582366        6.4798261709       33.0883496639
  C        11.3885209909        5.4280761330       29.6755999202
  H        10.5871319217        7.3948664776       30.3001461949
  H        12.0242064091        6.9902684624       30.9584126146
  H         9.9869998028        6.4691861652       33.9343676087
  H        11.3694695099        5.7644306111       33.4027934836
  H        11.1300616135        7.3773407643       33.1347783054
  C        10.2112266375        5.3693543314       28.7332204383
  H        11.4922677899        4.5553462360       30.2571473109
  H        12.3437460953        5.6426703554       29.2170708469
  C        10.5603526273        5.5567138629       27.2517098317
  H         9.9052926500        4.3346736064       28.9078967244
  H         9.3133662252        5.8855575707       29.1040705896
  C         9.4940480046        4.8704984895       26.3059226992
  H        11.5606798667        5.0388308507       27.0478370355
  H        10.7332330290        6.6072350031       26.9277523856
  C         8.2747096920        5.6996508588       25.9590974406
  H        10.0775788234        4.6230287115       25.4052481844
  H         9.1100839991        3.9614254396       26.7662317841
  C         7.0741741231        4.8689646745       25.4163655067
  H         7.9764671572        6.3988607778       26.7790620679
  H         8.6360393040        6.3486345719       25.1294466165
  C         6.7624779762        3.5525502809       26.0672320171
  C         7.4546480089        4.1626656596       24.1343188881
  C         5.7563714134        5.7147549676       25.3109484940
  C         7.1318783882        2.4388863898       25.2834400723
  C         6.1717103570        3.1131034732       27.3049022507
  C         7.5759736272        2.8024153899       24.0687268337
  C         8.0440663177        4.7532121410       23.0126832188
  H         6.0794560051        6.5873233782       24.7529087621
  H         5.4933643222        6.2356677250       26.2380567416
  C         4.5597417665        5.0753979811       24.6066039627
  S         6.7676992770        0.9127077964       26.0764299893
  C         6.1224111220        1.7638550115       27.4612278315
  H         5.8974256651        3.9018927028       28.0152353408
  C         8.0309774686        2.1523507254       22.9819487443
  H         8.0204134320        5.7840982289       23.0151461358
  C         8.3696596397        4.1428325906       21.8682955617
  H         4.7856266804        4.9225802474       23.5816613948
  H         4.4024733862        4.1155450417       25.0446135156
  C         3.2516272571        5.8138163123       24.5992302043
  C         5.7457638769        1.0160301340       28.6893747656
  C         8.3740722237        2.7571642365       21.7926412754
  H         8.1898557604        1.0747894875       22.8919887539
  C         8.7353657896        4.5391277506       20.5889333520
  H         2.6802537603        5.2771947371       23.9281766083
  H         3.3927790526        6.8302109883       24.3748162824
  C         2.4681053442        5.9134891630       25.9574262749
  C         5.8087783481       -0.3664449508       28.8486973685
  C         5.3548031192        1.8381505475       29.8971571328
  C         8.7914643872        2.0902918331       20.5091007262
  C         8.9823565805        3.4255313854       19.8194080347
  S         8.9356610973        6.0416261183       19.8130941431
  H         1.8731416741        6.7721392744       25.8523328691
  H         3.2791508112        6.1169319859       26.6574039974
  C         1.7254749791        4.6782690902       26.4258394813
  N         5.9381542126       -1.3350169050       27.9006732525
  C         5.5739709129       -0.9123192478       30.1363983764
  C         5.1413526102        1.3330661004       31.1331035871
  H         5.2598452105        2.9081129520       29.8417751801
  C         7.7690626774        1.2227802151       19.7887074194
  C        10.0606380954        1.2884166247       20.5942855340
  C         9.3384856366        3.8286131330       18.5217328590
  C         9.4466100600        5.2103845915       18.3597653824
  H         0.9150289080        4.4716483142       25.7661943390
  H         2.3871683615        3.8224937108       26.3008165581
  C         1.0927672763        4.7738757721       27.8559824109
  S         6.0511205292       -2.7678822054       28.7237713855
  N         5.6391578804       -2.3022580647       30.1820701711
  C         5.2576930201       -0.1565502622       31.2730563036
  H         4.9223591206        1.9158322096       31.9839900578
  H         7.6084066724        0.2970009608       20.3685610267
  H         8.1662717168        0.8167262003       18.8536251533
  C         6.2650765107        1.8123991266       19.5742639326
  H        10.2171284379        0.8699005112       19.5909997971
  H         9.8216782101        0.4392185190       21.2181118756
  C        11.2819603390        2.0514002992       21.1778443132
  H         9.5836691653        3.0274204932       17.8052875464
  C         9.7604453585        5.9283595495       17.1110519060
  H         0.4400501044        3.9309028191       28.0182706733
  H         0.4631776006        5.7169648776       27.8411886855
  C         2.0966303991        5.0649434079       28.9432674749
  C         5.0215189389       -0.8975074520       32.4553997778
  H         6.2258711287        2.8696415452       19.8337629481
  H         5.5496239441        1.2870497065       20.2295910236
  C         5.7551244924        1.6999631970       18.1511958079
  H        11.1188957996        2.3473094507       22.1540051012
  H        11.5466271002        2.9315126358       20.6359924122
  C        12.5085326319        1.1626671974       21.2615947751
  C         9.8367506543        7.3597498763       16.8819911525
  C         9.9615032303        5.1508403022       15.9079861444
  H         2.8411744656        4.4656037227       28.5476800554
  H         2.5551261409        6.0749153109       28.9160797147
  C         1.5460085573        4.9103852853       30.3958387881
  H         5.0864987586       -1.9785051963       32.5076129093
  C         4.7755747900       -0.5306777058       33.7389201785
  H         6.1701109867        0.7814268815       17.8434940158
  H         6.3027369296        2.4006868305       17.4372603499
  C         4.2624271262        1.8676796959       18.1608280668
  H        12.2691896357        0.3258335851       21.9909821382
  H        12.7678367176        0.8784553253       20.2199690060
  C        13.6476270238        1.9925394106       21.8349387958
  N         9.7601491404        8.3378310531       17.8814631750
  C        10.1456909708        7.9274356838       15.6304101271
  C        10.1895511493        5.6452610017       14.6397003705
  H         9.8091871296        4.0161286323       15.9356820786
  H         0.8652534895        4.0767391644       30.5534860714
  H         2.3661409146        4.5854427384       31.0443206359
  H         1.0730973605        5.9181055535       30.5694801453
  S         4.5770594421        1.0642876976       34.2657857327
  C         4.7292503807       -1.6183146981       34.7742866734
  H         4.0487933405        2.5176491348       18.9760726271
  H         3.8796555016        2.2010218543       17.1828720792
  C         3.4579556337        0.6032709812       18.4438548846
  H        13.3066860939        2.5995590771       22.6937981681
  H        14.0406947331        2.7589863535       21.1132168906
  C        14.7505875144        1.0557208757       22.3466790452
  S         9.8394199218        9.8421771351       17.1926872531
  N        10.2088851826        9.3435523047       15.6905418627
  C        10.3160944331        7.1471838477       14.4683500075
  H        10.2981671874        4.9426964225       13.8499036599
  C         4.4417170752        0.3487634768       35.9239074490
  N         4.5552740658       -1.0372344338       35.9281772939
  O         4.7969487641       -2.8134721504       34.4997955327
  H         2.4070483532        0.9050300180       18.5727884051
  H         3.7463232457        0.0874667749       19.4055152871
  C         3.5301325079       -0.3340183050       17.2764261861
  H        14.3423313111        0.4170696033       23.1414689862
  H        15.0395017905        0.3843297197       21.5761293898
  C        15.8747743536        1.7446156742       23.1031135825
  C        10.6262287669        7.8742315686       13.3056060164
  S         4.0332357861        1.2454447044       37.3939469616
  C         4.3696458232       -1.8875015969       37.1432796783
  H         2.9457116176        0.1052397935       16.4290618276
  H         4.5646213140       -0.4807005927       17.0292350152
  C         3.1313832345       -1.7411951700       17.6230430416
  H        16.4730840955        0.9821313033       23.5539022976
  H        15.4828550041        2.3878172279       23.8568678599
  C        16.8799768078        2.4561002600       22.1963543290
  H        10.4358051994        8.8875453124       13.2898888251
  C        11.1051454755        7.4955029404       12.1269105908
  H         3.8969829276       -1.4049149909       37.9443748054
  H         3.8639305638       -2.8370252070       36.9514593654
  C         5.7239470805       -2.3432780010       37.6664333116
  H         3.8926284056       -2.3243889690       18.0707371182
  H         2.8675042151       -2.1962415292       16.6303512237
  C         1.7759237624       -1.8664672912       18.3920476424
  H        16.2495804575        2.8335010362       21.3139371204
  H        17.3194356881        3.2656464213       22.7874066413
  C        17.9019376519        1.5072931673       21.6741215449
  S        11.4342824203        5.9181683510       11.5926866878
  C        11.3980991223        8.5226171437       11.0086131608
  H         5.7409407995       -2.6646992733       38.7523884133
  H         6.0630666954       -3.2401245769       37.2387948449
  H         6.3423375331       -1.4846811201       37.5418050558
  H         1.3646563000       -2.9165823741       18.5734406308
  H         0.9654609547       -1.2995540145       17.8728596172
  H         1.8877131907       -1.5231223121       19.4267557649
  H        18.4624848741        1.9036791508       20.8200992496
  H        17.5997758968        0.5487902328       21.5121553678
  H        18.6438841608        1.3107889190       22.4537192786
  C        12.0208444059        6.6209035945       10.0946425196
  N        11.8041009496        7.9217857732        9.9037688055
  O        11.1249211034        9.7089648350       11.1807803003
  S        12.8740726619        5.8046902758        8.8327963929
  C        12.0936681906        8.6830663574        8.6879387284
  H        12.1651307475        9.7621500603        8.9750729716
  H        13.0445998894        8.3922241677        8.2257999432
  C        11.1064267509        8.3287364626        7.5766557587
  H        10.0545925930        8.0020788286        7.9016326692
  H        10.9564839169        9.1476587416        6.8724009704
  H        11.3776381642        7.4398423388        7.0730039019
  H         4.0967321206        0.8326748771       12.6148721954
  C         3.5733067300        1.7843647416       12.6351096006
  H         4.3332649357        2.5528701566       12.6854119498
  C         2.6047543889        2.0147000414       11.4751553033
  C         2.9260457832        1.8192158150       14.0565974862
  C         3.3402393243        2.5364163163       10.2343097416
  H         1.8245875785        2.7287984067       11.7209676124
  H         2.0729397131        1.1557912477       11.0903295785
  H         2.3693582678        0.9086743223       14.1809676137
  H         2.2889348437        2.7557890531       14.2972722173
  H         3.8183747687        1.7658993569       14.7085643261
  C         4.1465545037        1.3606983177        9.5744973859
  H         2.6640759976        2.9556111287        9.4518725790
  H         3.9996508099        3.3996443069       10.5585256566
  C         4.7869356100        1.6298966064        8.1983658158
  H         3.4034925779        0.5991525446        9.3759283633
  H         4.8607772173        0.8876579672       10.2859133804
  C         6.0803167125        2.4248397707        8.1607328725
  H         4.0494932111        2.2044251091        7.6838349034
  H         4.9177168851        0.7286481474        7.5389362158
  C         7.3047992154        1.6240599175        8.6657742176
  H         6.2611810982        2.6789081569        7.1445523184
  H         5.8481264383        3.3738441813        8.7327488263
  C         8.5289847720        2.5839142823        8.9617909842
  H         7.6113703384        0.8992610303        7.9603168578
  H         7.0857663743        1.1201565167        9.6276432922
  C         8.1444366997        3.9037112069        9.5644716258
  C         9.0305313219        3.2675835213        7.6445875363
  C         9.6575722370        1.8489048376        9.6980670253
  C         8.4552719058        5.0225798968        8.8061598486
  C         7.6649801436        4.3107177915       10.8278063536
  C         9.0478511786        4.6036249228        7.6103544326
  C         9.4663229332        2.6907795458        6.4774730357
  H         9.2630913645        1.3640419606       10.5680157411
  H        10.1193498877        0.9838423185        9.1395864322
  C        10.8632582050        2.7234746867        9.9106349964
  S         8.2135929495        6.5015870810        9.6147652873
  C         7.6362000777        5.6442513044       11.0302007420
  H         7.2491660050        3.5444693806       11.5055154221
  C         9.4369055662        5.3485864604        6.5070521110
  H         9.5446178103        1.6399107333        6.4019053010
  C         9.9397031308        3.3892946578        5.3698732356
  H        10.6022748759        3.7152943777       10.2243606572
  H        11.3146893347        2.8467048228        8.9176858522
  C        11.8104835423        2.2061293516       10.8736109537
  C         7.3641738079        6.3428618468       12.3279794492
  C         9.9376333100        4.7662520718        5.3322928346
  H         9.2983977002        6.4307914912        6.5640695884
  C        10.4516396425        3.1535571998        4.0987433648
  H        12.6512208766        2.8463082032       10.8955162639
  H        12.3253439442        1.3643672395       10.3988640272
  C        11.1954485418        1.9240706589       12.2525881302
  C         7.4432445242        7.7623407584       12.5169075630
  C         6.9494577695        5.4837564619       13.4667825124
  C        10.4534554528        5.5140910914        4.0804128409
  C        10.6651905171        4.2545902228        3.3059659445
  S        10.8480287447        1.6504191622        3.3883353995
  H        10.6857259738        2.7978584533       12.5239598535
  H        10.3038433464        1.2166147026       12.2227944114
  C        12.1637971808        1.5601480299       13.4190675121
  N         7.6858744329        8.7791822780       11.6126379755
  C         7.3120946377        8.2435318669       13.8114381139
  C         6.6925908934        6.0258859372       14.6809482819
  H         6.7523606350        4.4264109513       13.2793871409
  C        11.7944581378        6.3083214745        4.3680371288
  C         9.3835218569        6.3124796438        3.3592823940
  C        11.1511399024        3.8969551997        2.0354484870
  C        11.3176464200        2.5269453797        1.9552065002
  H        13.1620136401        1.7218366275       13.0182226834
  H        12.0912384928        0.4646359766       13.4922372872
  C        11.8652255047        2.2766448929       14.7389887179
  S         7.7220120622       10.2384860672       12.3566455136
  N         7.5120709758        9.6378589001       13.8407873250
  C         6.9265817640        7.4576745091       15.0154155343
  H         6.3365761174        5.3427322430       15.4734401247
  H        11.5489605975        7.1736708706        4.9610128655
  H        12.1847582545        6.7153148089        3.4922834570
  C        12.8413616145        5.5042484215        5.0634949227
  H         9.0270142057        7.1343644946        3.9829224144
  H         9.8800319001        6.8022365502        2.5281788990
  C         8.1148499688        5.6182178145        2.8512307787
  H        11.2557898759        4.6275230751        1.2485402397
  C        11.8261231736        1.7795229958        0.7331933890
  H        11.8307154921        3.3828364528       14.5281794799
  H        10.8507463601        2.0301808697       15.1590971576
  C        12.9610761729        1.9293526776       15.8314428544
  C         6.7526559495        8.1195598564       16.2885443755
  H        12.4374265566        5.0624636443        6.0073580122
  H        13.0988588776        4.7447398072        4.4050455170
  C        14.1961496708        6.2485808611        5.5126999806
  H         7.6144424171        5.0535528548        3.6040236471
  H         8.4904199671        4.8922001916        2.1018898192
  C         7.3081927286        6.5624758180        1.9855244799
  C        11.8721239176        0.4210329598        0.4852413666
  C        12.1713567215        2.6503956125       -0.4373963448
  H        13.9275267956        2.4668252634       15.6418776459
  H        13.0443609027        0.8541481358       15.6835801777
  C        12.4748847215        2.2006039236       17.3404474396
  H         6.6539313341        9.1918667270       16.2898058509
  C         6.4099064044        7.6084450221       17.5572104661
  H        14.0411194195        7.2191115190        5.9269183616
  H        14.8328309551        6.4836319462        4.6742543440
  C        15.0968527183        5.3326535751        6.2772470892
  H         7.2824573990        7.5011718935        2.4843454770
  H         7.8250232919        6.8061105823        1.0675425394
  C         6.0124629199        6.0017192654        1.5479915410
  N        11.3942395524       -0.4842900394        1.4014847852
  C        12.1295045380       -0.1335528359       -0.7278823703
  C        12.4946019556        2.0770537218       -1.6783962237
  H        12.1210340466        3.7949553127       -0.3301678433
  H        12.3185194199        3.2772942953       17.4903284305
  H        13.2334746492        1.9913818334       18.1062474394
  H        11.4676828882        1.7027756141       17.4886420298
  S         6.1202024671        6.0104439999       17.9519212208
  C         6.2734651802        8.5860645214       18.6644385265
  H        14.5996450965        4.8823751031        7.1581278926
  H        15.3150850080        4.5682398537        5.6313768904
  C        16.4479451255        5.9951170414        6.6622357229
  H         5.4950989427        5.3771168515        2.3281775331
  H         6.1274329384        5.1649428342        0.7821590929
  C         5.0472476494        7.0686452708        1.1438782817
  S        11.4933826170       -1.9625396619        0.7986322191
  N        11.9658983661       -1.5170975236       -0.6709299164
  C        12.4487517866        0.6007820338       -1.8519992651
  H        12.6378401759        2.6972957769       -2.5443512448
  C         5.7822530759        6.6096442547       19.5885145616
  N         5.8226006304        7.9302825738       19.6999980782
  O         6.4065828027        9.8153865098       18.6504805500
  H        16.9184735215        6.4766758662        5.7809454343
  H        16.3170281429        6.7821972339        7.3573359012
  C        17.3777291347        4.9549560550        7.1782114789
  H         5.7088748104        7.7128925184        0.5513945686
  H         4.3730464215        6.7828673770        0.3397734550
  C         4.2146247474        7.7268121667        2.2552379572
  C        12.6992055728       -0.1802064547       -3.0336622941
  S         5.3879150397        5.6693266309       21.0470388157
  C         5.4911163148        8.6528222521       20.9385500536
  H        17.1065433727        4.6021001533        8.1759882774
  H        17.4048972334        4.0039380906        6.7139781818
  C        18.7388915037        5.5797227278        7.0059580127
  H         4.6606808012        7.6048872725        3.2521064433
  H         3.2777952621        7.2409060539        2.4201648636
  C         4.0002959748        9.2355362391        1.9582460033
  H        12.4242400318       -1.2019027054       -2.9734829672
  C        13.2851074665        0.2121090234       -4.2360380494
  H         4.6884159471        8.2046591352       21.4523809752
  H         5.0445336114        9.6606739137       20.8845390470
  C         6.7685657499        8.7257389822       21.7795059726
  H        19.2483667062        5.3235906543        7.8596054017
  H        18.6247441429        6.6679411387        7.1309984233
  C        19.5283230820        5.1630055022        5.7997954206
  H         3.4911635934        9.6925907624        2.7580874951
  H         4.8701838054        9.8572957083        1.8996301512
  C         3.2568658905        9.5513755446        0.7016481117
  S        13.8612294265        1.7355136276       -4.5538822199
  C        13.4043701274       -0.8492701065       -5.2505122281
  H         7.1640977676        7.8245418927       22.3471273978
  H         6.6769027255        9.5196714502       22.4318454339
  H         7.6623842437        8.8984201905       21.1664686480
  H        20.2395349448        4.4582678849        6.1237664224
  H        18.9422942102        4.6771227699        4.9477780248
  H        20.0121784491        6.0058244042        5.3727211726
  H         3.0867909636       10.5903947781        0.7746947473
  H         3.9283013786        9.5430260758       -0.1492196370
  H         2.3958964266        8.9128332436        0.5018542683
  C        14.3474586937        1.0289406714       -6.1391034589
  N        14.1074902450       -0.3251252289       -6.2868288603
  O        12.9574784148       -2.0057908877       -5.1460773342
  S        14.8780887005        2.0229478287       -7.5066476449
  C        14.3174843127       -1.0596530690       -7.4783862801
  H        14.7527445271       -2.0144199309       -7.4171852446
  H        14.9923819269       -0.5476956391       -8.1260691118
  C        12.9808078816       -1.1919892723       -8.2516259243
  H        12.2791618576       -0.3910927120       -8.2582351593
  H        12.5452238492       -2.0566597509       -7.8454705362
  H        13.2342665320       -1.3801557776       -9.2676819612
