352
 i =     9700, time =     4850.000, E =       143.9899906671
  H         9.9584542770        4.4924666688       32.4699310496
  C        10.2103044318        5.5898091128       32.2405035128
  H         9.2373262676        6.0881992756       32.1682610710
  C        11.0247036350        6.0455067296       31.0701154921
  C        10.7097358473        5.9887253124       33.5142672311
  C        10.4640242690        5.4537710165       29.7539810309
  H        11.4395226926        7.0345257937       31.1704596937
  H        12.0380807554        5.6186330324       31.1686721094
  H        10.0156358478        6.7127567081       33.9385438751
  H        10.7005084505        5.2196716582       34.2114714436
  H        11.6111031809        6.5593526150       33.3562972471
  C        10.8285508775        6.3273919851       28.5056028883
  H         9.3923529487        5.5751331364       29.8399990886
  H        10.6440094118        4.3933349399       29.5598511892
  C        10.9773973866        5.5346447192       27.2357116628
  H        10.1146380163        7.1090469071       28.1930795039
  H        11.8239984845        6.8437460966       28.6632506318
  C         9.6952892510        4.9279878517       26.5438430053
  H        11.7369646604        4.8167868921       27.3082631832
  H        11.5345448239        6.1415816262       26.5680154499
  C         8.5502702315        5.8170067165       26.1102435475
  H         9.9197145557        4.4877611369       25.5695405987
  H         9.3028414523        4.1697608263       27.2771822134
  C         7.2615123445        5.1175515439       25.5884425245
  H         8.3348130062        6.4824868981       26.9379056527
  H         8.9751570269        6.4955924383       25.3561141794
  C         6.8948716911        3.7411058081       26.2550724299
  C         7.6452449980        4.4198637468       24.3037591101
  C         6.1627523735        6.1211503983       25.3913013884
  C         7.1360994888        2.6588044089       25.3746756549
  C         6.4816024588        3.3745824755       27.4951987327
  C         7.5861577927        3.0823638448       24.1887893068
  C         8.0361500502        5.1231387869       23.1422514555
  H         6.4880377699        6.7914664439       24.6022377378
  H         6.0782419697        6.7899699818       26.2751502666
  C         4.7998854231        5.4290252891       24.9848064598
  S         6.7719506942        1.1895198782       26.1292896531
  C         6.2737066027        2.0625583455       27.5602755012
  H         6.3390065885        4.1746811718       28.2227922843
  C         7.9701869264        2.5418357135       23.0002865959
  H         8.1040726707        6.1954036624       23.2090906178
  C         8.3570577895        4.6080166505       21.9935494976
  H         5.0102140104        4.9752518145       24.0072481405
  H         4.4585714669        4.6917921530       25.7306291147
  C         3.7345641746        6.4430683460       24.6151707815
  C         5.7440748294        1.3274412366       28.7501763340
  C         8.3615503964        3.2425815259       21.8649141935
  H         7.6998471348        1.4962907895       22.8629070790
  C         8.8721205534        5.0276204220       20.7821275563
  H         3.1520518799        6.1262604976       23.7979302835
  H         4.1747659742        7.4562788962       24.3466239941
  C         2.8068266087        6.9262660192       25.8242771788
  C         5.8587930924       -0.0164712836       29.0487049409
  C         5.2447398550        2.1692656086       29.8437667460
  C         8.8086020683        2.5434611954       20.5126387405
  C         9.1366629195        3.9937417020       19.8696999438
  S         9.0456469066        6.5653670585       19.9785464554
  H         2.1421596741        7.7833284909       25.5212681174
  H         3.4998794542        7.5536284056       26.5578966040
  C         2.1016877801        5.8111392522       26.6522901407
  N         6.2679208986       -1.0049885168       28.1154035584
  C         5.4961412873       -0.5821461231       30.2610003944
  C         4.9463416525        1.6039639877       31.0840285570
  H         5.0102849264        3.1619083132       29.6652323388
  C         7.6290012295        1.8835739114       19.9499745464
  C        10.0331498167        1.6365772300       20.4177946060
  C         9.6101276554        4.3864879666       18.5967698905
  C         9.5172537202        5.7816976218       18.5202593956
  H         1.7196213164        5.0577924454       26.0497979244
  H         2.9136749087        5.3346816058       27.2235573683
  C         1.0550076312        6.2728086797       27.6786685542
  S         6.4413880758       -2.4598072021       28.9181545006
  N         5.7431176963       -1.9602917154       30.2777700264
  C         5.0482050859        0.1562257533       31.3662642744
  H         4.5928505790        2.2709868205       31.8286176782
  H         7.4884905406        1.1237348758       20.6771046469
  H         7.9779441910        1.3412575131       19.0208041211
  C         6.3850558068        2.7190352101       19.7753443907
  H        10.2594596579        1.5161812795       19.3670982209
  H         9.9525555227        0.7166085926       20.8678195890
  C        11.2453822567        2.2863354910       20.9669404878
  H         9.8912886578        3.6952959126       17.8164825288
  C         9.8001772812        6.5494141269       17.1876219384
  H         0.3022918563        6.7398520576       26.9982715175
  H         1.5075098789        7.2281098131       27.9753945599
  C         0.9725735836        5.3530111502       28.9304933786
  C         4.8827606403       -0.5815116402       32.5994252265
  H         6.5080102264        3.5558469680       19.0770446797
  H         6.0045372802        3.2157502966       20.6329503524
  C         5.2744805666        1.8551049952       19.2134801039
  H        11.0821598155        2.8851037055       21.8251031621
  H        11.6302023102        3.0300853980       20.2981346897
  C        12.3133151951        1.2741233490       21.2240618190
  C         9.8346158044        7.9238824263       16.9441389083
  C        10.0191457039        5.7503326989       15.9821033175
  H         0.1539769993        4.6095730410       28.9256190274
  H         1.8532739526        4.7726545477       28.9609355183
  C         0.8398867298        6.2957111613       30.0547543377
  H         4.9778239491       -1.6888815425       32.6540187548
  C         4.7625508223       -0.1319129591       33.8953221088
  H         4.9699511807        1.1640116639       19.9782829527
  H         5.7094949380        1.3001355020       18.3887831240
  C         4.0724336921        2.4121153071       18.5999850901
  H        12.2546335492        0.6828330862       22.1429208577
  H        12.3557159910        0.4868223019       20.4623287604
  C        13.7125959505        1.8957555368       21.2337230202
  N         9.5079745302        8.8995920068       17.9362961509
  C        10.1276041547        8.5320503372       15.7630348414
  C        10.2418386938        6.3407544152       14.7066324237
  H         9.9950124127        4.7229772086       15.9691247976
  H         0.3588579210        5.6740547925       30.7704658021
  H         1.6488456934        6.9958170357       30.1936045494
  H         0.1805870906        7.0004475565       29.5416577716
  S         4.4708141268        1.4804131376       34.3608522111
  C         4.6471977034       -1.1234705044       34.9853790313
  H         3.5499331297        3.0337301711       19.2155778726
  H         4.3439987512        3.1095296199       17.6921681878
  C         3.0505707381        1.2221869507       18.3259232289
  H        13.7803082968        2.5734476525       20.3403196030
  H        14.3970571795        1.0486548044       21.0536798591
  C        14.1001970582        2.8158415448       22.3715295831
  S         9.4518121858       10.2988192781       17.2285816383
  N        10.1398569756        9.9014058872       15.8562806211
  C        10.3698889072        7.8338279351       14.5902793429
  H        10.2708796710        5.7100974928       13.8801484686
  C         4.1200427577        0.7817612398       35.9450085557
  N         4.3805243593       -0.4928010057       36.1148146577
  O         4.9154787428       -2.3251404902       34.8629865981
  H         2.0225363120        1.5083437670       18.0903784723
  H         2.9949151036        0.7094208308       19.2574930931
  C         3.3017235528        0.3081421853       17.1670763712
  H        13.3508543702        3.7062883340       22.3683736278
  H        13.6027536973        2.2748756991       23.2279143032
  C        15.5559518059        3.3156799366       22.2609537674
  C        10.7557793358        8.5607053673       13.4321050232
  S         3.6933153608        1.8009518043       37.3956008708
  C         4.4014843311       -1.2555393054       37.4083319646
  H         2.6743334098        0.7934532360       16.3452638869
  H         4.2786355259        0.5126622934       16.8282256216
  C         3.2497231579       -1.1769179057       17.5115054522
  H        15.6788020555        4.2217051047       22.8599644547
  H        15.7086388967        3.6348692432       21.2172436756
  C        16.5487174477        2.2457505205       22.6494442462
  H        10.5483608887        9.6844306817       13.3980114723
  C        11.2567939933        8.1672541179       12.2529672108
  H         3.5825547380       -1.2228958581       38.0664338316
  H         4.2560504162       -2.2502479461       37.0568575888
  C         5.6905872143       -1.0356950789       38.0989364977
  H         3.8735035150       -1.3642714051       18.3415430441
  H         3.7421566818       -1.6789386591       16.7398500807
  C         1.8237955437       -1.5688228502       17.7340159625
  H        16.4409266471        1.9753784038       23.6592083521
  H        16.3858750806        1.3203063713       22.1179670533
  C        17.9413666933        2.6362611443       22.3287825278
  S        11.7614171839        6.5972550543       11.7868541098
  C        11.4118798832        9.2266593950       11.1569074731
  H         5.4692920135       -0.4713461321       39.0349096574
  H         6.2851853772       -1.9085996529       38.3271582196
  H         6.3356243026       -0.3833617141       37.6139069750
  H         1.6650955503       -2.6582878879       17.5116163386
  H         1.1042414699       -0.9587957994       17.1824171249
  H         1.4068904568       -1.4049567027       18.7657215856
  H        18.7704311167        2.3146208011       23.0078426667
  H        17.9928191607        3.6611363383       22.1492739391
  H        18.1384492528        2.3860721892       21.2863139486
  C        12.2041792091        7.2985322820       10.1990738618
  N        11.9301169067        8.6111876883       10.0284919368
  O        10.9709193120       10.3623429996       11.2291700428
  S        12.6815996645        6.3823440481        8.7060604802
  C        11.9741012146        9.2671970553        8.7200665886
  H        12.4888435138       10.1984223044        8.7993848344
  H        12.6503416482        8.6933512975        8.1230628298
  C        10.5447219461        9.2816683324        7.9901124223
  H         9.7900354311        9.9502984860        8.4150012955
  H        10.7346592730        9.8127293134        7.0155574064
  H        10.2919582702        8.2556366743        7.7081108502
  H         4.4686724689        2.2611503635       12.4979173554
  C         3.7611234512        3.0325371002       12.6853723497
  H         4.2364396176        3.9950773318       12.7967470849
  C         2.7799532578        3.0333256613       11.5081909603
  C         3.0182519643        2.6454354715       13.9623335537
  C         3.4129394301        3.1476012612       10.0960987919
  H         2.0560877603        3.8119822209       11.6182125978
  H         2.2055106374        2.0787084438       11.5385839160
  H         2.7218779520        1.6439180533       13.8867526924
  H         2.2091827249        3.2768736407       14.2629181378
  H         3.7391909816        2.6536647041       14.8321550548
  C         4.0990900535        1.8323437373        9.6534944448
  H         2.8174739775        3.5213133420        9.2133065435
  H         4.1561181747        3.9383183893       10.2432040352
  C         5.0891324675        1.8709219627        8.4561443959
  H         3.3138851797        1.0733792283        9.4070594493
  H         4.5805272943        1.4246605545       10.5674937483
  C         6.3256164777        2.7450607699        8.6116049836
  H         4.4268535687        2.2767910309        7.6996668732
  H         5.2478696264        0.8113107615        8.1418646297
  C         7.6381059092        1.9907269520        9.0270976431
  H         6.4539175283        3.1478269502        7.6073555546
  H         6.1599599055        3.7171862484        9.1442533484
  C         8.8894849108        2.8829638904        9.2037148964
  H         7.9101807366        1.1718156099        8.4591071583
  H         7.3687512969        1.6046803591        9.9836489224
  C         8.5340566389        4.2280606798        9.9490935689
  C         9.2504165641        3.6157838731        7.9715060472
  C        10.0429289187        2.2986318191        9.9901343066
  C         8.8508244972        5.3229672023        9.1351537689
  C         8.1739549125        4.6170008221       11.2934443513
  C         9.2452243520        4.9239815803        7.8781613175
  C         9.5901869327        2.9296254677        6.8261044026
  H         9.7974162894        2.2662257093       11.0657470599
  H        10.1683964580        1.2582433126        9.8231328791
  C        11.3674682920        3.0183618290       10.0285088374
  S         8.5606521944        6.8265594830       10.0262487826
  C         8.0977185945        5.9169725699       11.4721629496
  H         7.9335701138        3.8338910342       11.9836731502
  C         9.5485226743        5.5615996476        6.7119602861
  H         9.9067234979        1.9045122409        6.8715254530
  C         9.9566462737        3.5373818015        5.6943475658
  H        11.3969732390        4.1569272982        9.8874031708
  H        11.9221153698        2.6460723366        9.1876951846
  C        12.2573260509        2.5906243770       11.1883111448
  C         7.4527697124        6.5535910437       12.6238154405
  C         9.9872482575        4.9344047978        5.5781156192
  H         9.6286339473        6.6304991728        6.7996156544
  C        10.5930533183        3.1171343787        4.5211126484
  H        13.2988871082        2.9820940357       11.0802702448
  H        12.5278247275        1.5374831303       11.1363628300
  C        11.7449871972        3.0466141349       12.5568630239
  C         7.3694998635        7.9147371700       12.8070649700
  C         6.7389447019        5.7145958033       13.6565702573
  C        10.4304455535        5.5695307675        4.2599754638
  C        10.7705769289        4.1840656990        3.6396018778
  S        11.0156430238        1.6130260201        3.8160306388
  H        12.5214001326        3.6388176518       13.0736934733
  H        10.9599028600        3.7941488949       12.3382766876
  C        11.1661002296        1.8397478102       13.3040664425
  N         7.6125767240        8.8768597826       11.8504371833
  C         7.0177343585        8.4394840372       14.0506180945
  C         6.3169220292        6.2916624134       14.9047138927
  H         6.4755340729        4.6541720130       13.4779852631
  C        11.6544041313        6.5165235143        4.4762952214
  C         9.2821592729        6.4308713714        3.6049860994
  C        11.2275116866        3.7596079697        2.3922888473
  C        11.3652841960        2.4237311266        2.2924445517
  H        11.8937171277        1.0183902186       13.1342268482
  H        10.2219541460        1.5195192657       12.9905722836
  C        11.3020244545        2.2325633649       14.7872483852
  S         7.8005693493       10.3442551688       12.5702140810
  N         7.1696082168        9.8442407078       14.0578107748
  C         6.5804019393        7.7409012583       15.1716234043
  H         5.8999189008        5.6466732490       15.6347253052
  H        11.3643729420        7.3036370662        5.2270970173
  H        11.9217578240        6.9325123858        3.5232890526
  C        12.9196192835        5.7485882307        5.0651709219
  H         8.8230820667        7.1034184957        4.4362178799
  H         9.6390484823        7.0948675283        2.9105151908
  C         8.2317723412        5.5637464157        2.9686195397
  H        11.4836150671        4.4604961888        1.5791288481
  C        11.8453609629        1.7350851305        0.9981857834
  H        11.2404519929        3.2965368462       15.0316695442
  H        10.4611350620        1.8938466660       15.3144724521
  C        12.5697956976        1.6531946483       15.4344002106
  C         6.3986875817        8.4360968959       16.3900559160
  H        12.7471089641        5.1575177849        5.9079267763
  H        13.1983934345        4.9682595448        4.3633967694
  C        14.0802770885        6.7779555285        5.2334995470
  H         8.0113246631        4.6512103650        3.5449207539
  H         8.5561062493        5.2274605126        2.0480290292
  C         6.9575609937        6.4352287294        2.8400043941
  C        11.7531934420        0.3468576442        0.8160884227
  C        12.0471214620        2.4636829674       -0.3083380760
  H        13.4494754731        2.0187352475       14.9923423320
  H        12.4736074338        0.5777172521       15.2468800025
  C        12.6350518034        2.0868511951       16.8678969445
  H         6.5612449550        9.4933548406       16.3005043753
  C         6.2937984895        8.0329561215       17.7125077220
  H        13.9310970133        7.3219389301        6.1697477439
  H        13.9947263819        7.3249960575        4.3108348940
  C        15.3807439534        6.1887354114        5.4049059466
  H         6.5774583010        6.6396860920        3.8228219351
  H         7.0354647402        7.3693037742        2.2873772380
  C         5.9117464403        5.6621149758        1.9759850203
  N        11.5174144565       -0.5743848639        1.8608453786
  C        12.1264352086       -0.3068994529       -0.3730582927
  C        12.2576058490        1.7722531433       -1.4871585559
  H        12.1958691772        3.5208248159       -0.1529649894
  H        12.9252017879        1.3152361265       17.4498577615
  H        11.6371078613        2.3431035944       17.2183429555
  H        13.2614602104        2.9795933481       17.0081692499
  S         5.9718362135        6.4659646929       18.2261112551
  C         6.2933535473        9.0950521406       18.6861830390
  H        15.5037375599        5.2172023034        4.9448054909
  H        15.9829385450        6.8524692078        4.7181919363
  C        15.8778311406        6.1397863539        6.8605073345
  H         5.2307826434        5.2425811176        2.7213996276
  H         6.3636776491        4.9607996022        1.3324517405
  C         5.0549011704        6.7311604425        1.2002123660
  S        11.6343305778       -2.0308582358        1.2255486117
  N        12.1855857091       -1.6816375701       -0.2545934815
  C        12.4866564844        0.3498085358       -1.5703714704
  H        12.5733898701        2.3798820535       -2.2633042905
  C         5.7369226162        7.1408589223       19.7925216880
  N         5.9589174363        8.4892503072       19.8722997667
  O         6.4277710725       10.2880699445       18.4544316832
  H        16.0837978814        7.1389935977        7.1275009410
  H        15.1877996441        5.5782618043        7.2966229348
  C        17.3087301148        5.3570328098        6.9925668753
  H         5.4837335557        6.9742652519        0.2010413018
  H         4.1971901886        6.1223272477        0.9313865023
  C         4.5251899330        7.8110462945        2.2234192424
  C        12.7325202666       -0.3586513971       -2.7402353617
  S         5.2487617491        6.1147200271       21.2189873815
  C         5.8685996211        9.1130916242       21.1210801243
  H        17.8143201864        5.4163595165        7.9895050301
  H        17.1097776764        4.3017256872        6.7731971142
  C        18.2527237341        5.9155996995        5.8498769812
  H         5.3220368096        8.3984091089        2.4326024634
  H         3.9247974309        7.4372565282        3.0391775428
  C         3.4357678660        8.7648002779        1.6929171394
  H        12.5215739428       -1.4005239719       -2.6144399183
  C        13.2383404662       -0.0862537226       -3.9355652068
  H         4.8855596205        8.7276571888       21.5419189039
  H         5.6103904331       10.1357983014       20.9786583891
  C         7.2045666717        9.0049700846       21.8178904377
  H        18.0454343016        6.9630110599        5.6459140706
  H        18.1868788553        5.3577617748        4.8973279581
  C        19.7272959627        5.7314599580        6.1567793415
  H         2.8694303499        8.2853385303        0.9404396007
  H         2.6830128312        9.0744944815        2.3819187774
  C         3.9891827091       10.0779872112        1.1486540676
  S        13.4872141409        1.5092114135       -4.4930988987
  C        13.3731311382       -1.1930970396       -4.9125106015
  H         7.7674007983        9.9077730768       22.1997501778
  H         7.7683811853        8.5919830830       21.0132603181
  H         7.1740303353        8.3031558167       22.6324490530
  H        20.3314211503        6.5629255308        5.8210405777
  H        19.9252234159        5.6756219568        7.2077334803
  H        20.0146912400        4.7905399055        5.7416707406
  H         3.2979533848       10.4095009776        0.3231351082
  H         3.9273088677       10.7649543264        1.9838578554
  H         5.0090060738       10.0895091380        0.7025879045
  C        13.9550377414        0.7094092857       -5.9816480053
  N        13.8361939338       -0.6248022982       -6.0512847674
  O        12.9572791445       -2.2996434572       -4.7116596738
  S        14.6347258026        1.6190535349       -7.3798145848
  C        14.1177603851       -1.5445931531       -7.1167653897
  H        14.3289821424       -2.5023462396       -6.6553378064
  H        15.0348585821       -1.2726010819       -7.6209166652
  C        12.9486029103       -1.6202596076       -8.0483959717
  H        12.8897256954       -2.4720805681       -8.7357952991
  H        13.0512003037       -0.6818526772       -8.5355345287
  H        11.9802694935       -1.5454346027       -7.4421242164
