352
 i =   127400, time =    63700.000, E =       100.0797224039
  H        10.7524619371        7.0597902938       29.7363471473
  C        11.3945265981        6.4996439571       30.3950665699
  H        11.6727417259        7.2551162512       30.9889377102
  C        12.5419004702        5.8177604352       29.6199336101
  C        10.4673720805        5.5778080505       31.2621003290
  C        12.1294434927        4.5409697181       28.9151601267
  H        12.9134358199        6.4419127213       28.8365898843
  H        13.3687501075        5.5302324823       30.2959203271
  H         9.6783826568        5.0967997128       30.7153438081
  H        11.0066751271        4.9123762291       31.8932700637
  H         9.8611991543        6.1818665328       31.9433625911
  C        12.1266779998        4.6693915276       27.3713740137
  H        11.1522068987        4.2229554125       29.1600520787
  H        12.8098453676        3.7583748818       29.1937092955
  C        11.0638641811        5.6120158867       26.9334987300
  H        13.0200153889        4.8941440286       26.8377156781
  H        11.8925255828        3.7431308367       26.9128434652
  C         9.9014935926        4.9453563354       26.1920866120
  H        11.4418246118        6.4292319849       26.3087585586
  H        10.6801533512        6.0904596588       27.8148623733
  C         8.6955000274        5.9331850422       26.0305434659
  H        10.3444138193        4.8321631735       25.1378551602
  H         9.5851594816        4.0308675607       26.7190390690
  C         7.3614435036        5.4739583103       25.4443552295
  H         8.4270653149        6.3018137435       27.0493860672
  H         8.8702427293        6.8972116358       25.4590647589
  C         7.0261367390        4.0966005180       26.1197410996
  C         7.6635051990        4.7864222036       24.1179997761
  C         6.2331773718        6.6313985115       25.2845767734
  C         7.0461098627        3.0723697459       25.2152898102
  C         6.6254675356        3.7481024351       27.4204420639
  C         7.4922457625        3.4276892650       24.0083938573
  C         8.1235472013        5.4611941038       22.9687245438
  H         6.5997320898        7.3794944971       24.5762069904
  H         6.0674651282        7.1543610467       26.2018977462
  C         4.9019011913        5.9679703204       24.7606998248
  S         6.6321037646        1.5383105986       25.9842531178
  C         6.4023269563        2.3855114400       27.4912208988
  H         6.5974637405        4.5028764667       28.1863079401
  C         7.8596596592        2.8344111238       22.8522600298
  H         8.1259617626        6.5628536751       22.9572159775
  C         8.4353809189        4.8214100031       21.7815978046
  H         5.0880444373        5.8625948156       23.6991614707
  H         4.7370900186        5.0186536479       25.1925620196
  C         3.6633395993        6.8557843382       24.9358402446
  C         5.8879903630        1.6392596496       28.6753453630
  C         8.3295177796        3.4662893832       21.6903971908
  H         7.8181721023        1.8079174166       22.7899687830
  C         8.7873236783        5.2195253159       20.5234668561
  H         2.8580409917        6.4175610843       24.3302068988
  H         3.8629631786        7.8976259391       24.6026434468
  C         3.0714188071        6.8307287947       26.3691227105
  C         5.9115284370        0.2402102940       28.8955122469
  C         5.5364068953        2.3959645774       29.8516427629
  C         8.7891718986        2.7519262957       20.4634801503
  C         9.0325368187        4.1147887134       19.7119169770
  S         9.1239662921        6.7002550901       19.8134199895
  H         2.2430647609        7.5234546461       26.2855142604
  H         3.7995221663        7.2471666820       27.0410734187
  C         2.5281183507        5.3761448345       26.7772842295
  N         6.2245436708       -0.6674275740       27.9122254751
  C         5.7043594698       -0.3593248253       30.1216849507
  C         5.3249691263        1.8053528412       31.1321957250
  H         5.5840430671        3.4744087242       29.8427841997
  C         7.6651442311        2.0038277993       19.7428664597
  C        10.0877349322        1.8822824052       20.7150622691
  C         9.6609976246        4.5313931837       18.4877196400
  C         9.7944180309        5.9073252713       18.3841105044
  H         2.1308929017        4.8701866454       25.9449599720
  H         3.3620300136        4.7314472757       27.1134974231
  C         1.4143681501        5.4399819660       27.8589471405
  S         6.2108291394       -2.1635702646       28.5661899942
  N         5.8701683164       -1.7502548446       30.1076717958
  C         5.3840787054        0.3283928282       31.3317435224
  H         5.0945628675        2.3587513611       31.9779890352
  H         7.4655821104        1.1590387727       20.3735178012
  H         8.0771501948        1.6171670189       18.7746113746
  C         6.4864367598        2.9247358940       19.4229348025
  H        10.3813767583        1.5983754694       19.7487762606
  H         9.9306477866        0.9248726801       21.3023015536
  C        11.3148091294        2.6693115877       21.2896763483
  H        10.0849274684        3.8180453688       17.8502920330
  C        10.2014777678        6.7350821248       17.1674690267
  H         0.8841339066        4.5481796294       27.9775208141
  H         0.7864939286        6.2481199047       27.6146133220
  C         1.9857403015        5.7703290229       29.2041361362
  C         5.0809684245       -0.3987354718       32.5332338011
  H         6.6246293063        3.7248155658       18.7348918422
  H         6.1200976611        3.3136612050       20.4013481877
  C         5.3379632503        2.1101491151       18.8592802635
  H        11.1344448941        3.1025554086       22.3194587116
  H        11.4573860016        3.5943544374       20.6621953690
  C        12.6047570338        1.8682435601       21.3174430206
  C        10.3450469393        8.1550669576       17.0657593797
  C        10.3312852000        5.9897918610       15.8765418899
  H         1.7676749464        6.8141975081       29.4948141177
  H         1.4039103796        5.1385352849       29.8309008116
  C         3.4431820301        5.5061360736       29.4744208208
  H         4.9992746910       -1.4461305311       32.3674257681
  C         4.7274632583        0.0815073672       33.7635475088
  H         4.7519814343        1.9556863906       19.7109332224
  H         5.8443409356        1.1921734656       18.5011056797
  C         4.5162530968        2.8607078236       17.8702988298
  H        12.3481067534        0.9900676898       21.9031408642
  H        12.8882602281        1.5930695116       20.3514346143
  C        13.7790226986        2.7428659770       21.9150060537
  N        10.1361675915        9.0556250944       18.1534293549
  C        10.5821395096        8.7927163442       15.8897622962
  C        10.6804956200        6.6183926846       14.6990684759
  H        10.2000826995        4.8750804274       15.7960019408
  H         3.7460417373        4.5236025685       29.2267751893
  H         4.0538662850        6.3350163211       29.0502893846
  H         3.6396530366        5.5864760527       30.5625936456
  S         4.4169727839        1.6626353521       34.3710979986
  C         4.6449416141       -1.0352599908       34.8199616121
  H         4.3511342976        3.8570890831       18.3052001109
  H         5.0180371839        2.9949819364       16.9235810854
  C         3.2044163778        2.1144331699       17.7033979457
  H        13.3253243323        3.0551125011       22.8260578470
  H        13.9800100096        3.7142904771       21.4623887471
  C        15.0917165500        2.0244909704       22.0594780029
  S        10.1770777300       10.5474934595       17.5914457421
  N        10.5310227616       10.1694772211       16.0456824918
  C        10.8439593956        8.0765212829       14.6246601954
  H        10.8142646200        6.0616387150       13.7897121800
  C         4.3864101957        0.8208917038       35.9732837878
  N         4.4278499052       -0.5477256542       36.0113215053
  O         4.7907794800       -2.2912281978       34.6314098903
  H         2.4360882169        2.7817090101       17.4039333956
  H         2.9071862581        1.7849468137       18.7296498765
  C         3.4205278863        0.9571169999       16.7043677675
  H        14.9893376600        1.1763212512       22.8354259974
  H        15.4774242465        1.5439428601       21.1103191483
  C        16.0960592367        2.9694223274       22.6575612253
  C        11.1934857048        8.7844977888       13.3974258537
  S         4.1184024955        1.7152041855       37.4639689610
  C         4.4334891093       -1.3611470376       37.2162368309
  H         2.6452633809        0.9086175689       15.9532158678
  H         4.3687845776        1.1029738909       16.0937853995
  C         3.3816608542       -0.4002054401       17.4099285677
  H        16.1618359976        2.8286786915       23.7234429319
  H        15.8120117376        4.0445893693       22.5512402914
  C        17.5465838464        2.8806424361       22.0892125933
  H        11.0913317239        9.8387018839       13.4407075192
  C        11.8175270920        8.4111491612       12.1693849031
  H         3.7642959388       -0.8929590990       37.9835697764
  H         4.0049164864       -2.4104076137       37.0809891928
  C         5.8582375021       -1.4311933014       37.7181938288
  H         3.8882253564       -0.3799074073       18.3649157718
  H         3.9372169551       -1.1081532841       16.7442993287
  C         2.1030067329       -1.1076653980       17.5651795911
  H        17.5158319952        2.6187901423       21.0609841589
  H        18.0160189622        3.7968306753       22.3037599306
  C        18.3205554454        1.7627133060       22.8815631200
  S        12.5883038871        6.9097805788       11.7305358102
  C        12.0369732825        9.5245844515       11.2290367783
  H         6.5524605189       -1.1243263864       36.8989575122
  H         5.9737856287       -0.8004368796       38.5746364986
  H         6.1056152820       -2.4694893022       37.9449677610
  H         1.2748109532       -0.4846971634       17.8110804744
  H         2.0880782309       -1.8805806287       18.3002923747
  H         1.7891075672       -1.5581401496       16.6684891096
  H        17.6937065222        0.8520812741       22.9555493920
  H        18.4730804117        1.8857759842       23.9722317816
  H        19.3013423630        1.6185786030       22.4481626719
  C        12.9928108480        7.7270405331       10.1936594276
  N        12.7168028328        9.0916739852       10.1312014315
  O        11.7022679569       10.6873579085       11.3947452380
  S        13.7427540842        6.9091466712        8.7944081079
  C        12.7457576033        9.9520600648        8.9850457666
  H        12.7620723020       11.0635375519        9.3024558211
  H        13.5324101576        9.8085894369        8.3016715564
  C        11.3712525432        9.8545032542        8.2260749125
  H        11.1130241917        8.7708553394        8.1638586619
  H        10.6877148615       10.2887939692        8.9342279748
  H        11.0407950275       10.3778032826        7.3081421118
  H         2.4786740204        3.1662355754       12.8067819832
  C         2.9416623267        2.2443636281       12.5148108706
  H         2.3603060233        1.3579596632       12.9607071020
  C         2.7645777977        1.9923010333       11.0244334366
  C         4.4085305836        2.1201498534       13.0141271249
  C         3.7102869881        2.8161350638       10.1190356042
  H         1.7650145799        2.2196421773       10.7424969838
  H         2.8772834213        0.9332838122       10.8539972938
  H         4.5266999031        2.3043909183       14.0827856507
  H         5.0656963098        2.8380492309       12.5799377598
  H         4.9582422003        1.1796991869       12.7968611459
  C         4.6925712902        1.9082677423        9.4022480382
  H         3.1282185118        3.3921378188        9.3866168382
  H         4.3468749273        3.6060016605       10.6856507241
  C         5.5489339464        2.3696516957        8.2181382525
  H         4.1381440168        0.9846005170        9.0266918487
  H         5.3987346037        1.6895494494       10.2623799421
  C         6.7537167965        3.2153017832        8.6512460329
  H         4.8522118679        2.9685281149        7.6182594165
  H         5.7289671650        1.4600834132        7.6294278302
  C         7.8904056747        2.3819792222        9.2523085299
  H         6.9825418362        3.7800809092        7.6718064581
  H         6.3906781210        4.0342215811        9.2448537242
  C         9.2745533097        3.0862514835        9.3218299663
  H         7.9856721684        1.5592443596        8.5433962811
  H         7.6408911224        1.9994132401       10.2506515143
  C         9.1271652701        4.4696294371        9.9376906062
  C         9.7023327489        3.7334040369        8.0287650999
  C        10.4542577741        2.2719736702        9.8673999525
  C         9.3754509611        5.5325707372        9.0814084688
  C         8.5983402062        4.8947231638       11.1095355565
  C         9.8792672192        5.0742464220        7.8825305408
  C        10.0307879908        3.0053144588        6.9463640621
  H        10.1835904743        1.9798508796       10.7959543458
  H        10.6332959237        1.3096853196        9.2920438264
  C        11.7464578303        3.1072651648       10.1283091506
  S         9.0554722674        7.0582329113        9.7700478391
  C         8.4349242019        6.2723561969       11.1364362270
  H         8.3081522424        4.1516512902       11.8097976438
  C        10.2694743726        5.5499697892        6.7045418116
  H         9.8172110626        2.0043318422        7.0782372364
  C        10.5887846270        3.4829679996        5.7760518954
  H        11.7108601499        4.1502001876       10.4575765163
  H        12.2315315034        3.2176876819        9.1242175929
  C        12.7093459176        2.4505267467       11.0866311858
  C         7.9803894836        7.0265427022       12.3526414562
  C        10.6419432045        4.7894835381        5.5896675767
  H        10.1904777809        6.5919175233        6.5056294278
  C        10.9624579894        2.9794919988        4.5297929637
  H        13.6057839730        3.0669574276       11.1579573349
  H        13.0887369213        1.5186050401       10.7141255489
  C        12.1299115089        2.3614391116       12.5583546689
  C         7.9805442484        8.4334752886       12.6303231811
  C         7.3227688177        6.2447290290       13.4475872353
  C        11.0756092588        5.3732412697        4.2601699223
  C        11.2534271455        4.0141201153        3.6573568180
  S        11.1168528129        1.4106150704        3.9427212785
  H        11.5265043260        3.2381555343       12.7780786802
  H        11.5067329002        1.4587687375       12.6844561322
  C        13.3112251756        2.2847830037       13.5375627565
  N         8.4794139331        9.3136540747       11.6594949820
  C         7.7596902192        8.9860949329       13.8856719418
  C         7.1196911187        6.8340928142       14.6779842281
  H         7.1312263915        5.1509379649       13.3850336806
  C        12.4488849393        6.2124227070        4.3862204065
  C        10.0991890593        6.1687445096        3.3656697363
  C        11.7771745898        3.5096325267        2.4381510552
  C        11.6523523758        2.0797490356        2.4323148478
  H        14.0078622752        3.1507488617       13.4280737578
  H        13.8508559536        1.3533037829       13.2421945378
  C        12.7407529277        2.2844129173       15.0060346486
  S         8.3370558438       10.8076982716       12.3354034245
  N         7.9601425456       10.3942221650       13.8794745981
  C         7.2625537655        8.2932334541       14.9581138505
  H         6.6525540220        6.2412205179       15.4239463484
  H        12.3231414090        7.0673272950        5.0283602026
  H        12.7907002173        6.6320982694        3.4597849290
  C        13.5892685030        5.5189302998        5.0168501942
  H         9.7510455006        7.0451459601        3.9733466734
  H        10.5193660424        6.6616526613        2.5187041080
  C         8.8911817746        5.4878110604        2.8894821142
  H        12.2509450393        4.1926260239        1.7257979270
  C        11.9408663343        1.1954045342        1.2270899832
  H        11.9137048040        3.0054998575       15.2295969106
  H        12.3719668321        1.2171532430       15.1380880620
  C        13.8291171575        2.5548402553       16.0828600906
  C         6.9050240251        9.0068399399       16.1554756892
  H        13.4084175962        5.4862937528        6.0995783429
  H        13.6886517747        4.4670390704        4.5657208871
  C        14.9288045461        6.2207643983        4.8951448525
  H         8.3939244813        4.9735610697        3.7438808863
  H         9.0442264942        4.6759645584        2.1704248210
  C         7.8604360168        6.4782754452        2.2596435233
  C        11.8419868090       -0.2026587874        1.1249695437
  C        12.2694375726        1.9351194415       -0.0034182814
  H        14.5233955530        3.3928026646       15.8797718543
  H        14.4546805575        1.6594828781       16.2258167028
  C        13.2769309256        2.7595916461       17.5222966465
  H         7.1443263395       10.0857129982       16.2556925711
  C         6.6509802095        8.5693593969       17.4198255190
  H        14.8852805580        7.2140380410        5.3486055387
  H        15.1899975275        6.3241444652        3.8749241920
  C        16.1365511062        5.4581296581        5.4902670538
  H         7.3565648348        7.0426231637        2.9786323733
  H         8.3335709963        7.2273147974        1.6176507971
  C         6.7362540916        5.7480385294        1.5477732861
  N        11.5747965267       -1.0661037276        2.1720042734
  C        12.1582549287       -0.8662165519       -0.0629184978
  C        12.5518502674        1.2146893043       -1.1881352875
  H        12.3134225427        2.9784160378       -0.0879020798
  H        12.2761446985        2.3459175324       17.5884532966
  H        13.2700947812        3.8033502848       17.8889689738
  H        13.9114979219        2.2198604210       18.1813883467
  S         6.4121884687        6.9503715618       17.9596279297
  C         6.6003325700        9.6153485124       18.5129600409
  H        15.7480497163        4.5141551035        5.8767854353
  H        16.8269985797        5.1734498953        4.6926050543
  C        17.0315358096        6.2155925381        6.4697418013
  H         6.3243971205        4.8840461248        2.0077609496
  H         7.1945741097        5.4411779450        0.6120509726
  C         5.7036390547        6.7360702740        1.0427499664
  S        11.6851632522       -2.5933977528        1.7106041380
  N        11.9605955374       -2.2491216635        0.1436342546
  C        12.4842411165       -0.2628927286       -1.2612150447
  H        12.7270769905        1.8650949568       -2.0953335152
  C         6.1042982122        7.6441254006       19.5437791390
  N         6.1729833555        8.9719177582       19.6427355367
  O         6.7143015813       10.8489713564       18.3693326047
  H        17.6703726469        6.9811641215        5.9488770568
  H        16.3395264788        6.8161186950        7.0698312604
  C        17.7817849236        5.2990784455        7.3905795125
  H         6.2537425540        7.5087748143        0.5004128962
  H         5.0646659431        6.1621661175        0.3696865997
  C         4.7226157480        7.3062661097        2.0798239555
  C        12.6713610928       -1.0924391313       -2.4067086679
  S         5.5406114972        6.7378892842       20.9327556716
  C         6.0858270057        9.6921538386       20.8982543621
  H        17.0917782181        4.8590986035        8.1951067568
  H        18.0748855360        4.4056913981        6.8535557444
  C        19.0327696486        5.8074355714        7.8898555968
  H         5.2724720568        7.7221128491        2.9592548988
  H         4.2202716324        6.4707296016        2.4778257395
  C         3.7615147835        8.3798007354        1.5000708258
  H        12.5268376594       -2.1480759744       -2.2576929770
  C        13.1854574878       -0.8941902566       -3.6223107629
  H         5.3477532411        9.2858909386       21.5637990501
  H         5.6223066983       10.7269734332       20.7838129414
  C         7.4495837108        9.8136913855       21.6556268628
  H        19.3518799156        5.2586948936        8.7803431159
  H        18.7336270884        6.8474402690        8.1552161885
  C        20.2228074331        6.0040228830        6.9166787028
  H         3.5314724656        8.1701763971        0.4528003314
  H         2.7507465104        8.2406068749        1.9922843604
  C         4.2644813077        9.7670731944        1.5787147139
  S        13.8769045834        0.6160977829       -4.1575048724
  C        13.2146846606       -2.0164000672       -4.5960543055
  H         7.6116846044       10.8064848244       21.9368573992
  H         8.2550013356        9.5656392277       21.0007588853
  H         7.4725180247        9.3042251652       22.6264213692
  H        19.8996991913        6.5961020756        6.0079789023
  H        21.0197223294        6.5251921255        7.3667710088
  H        20.6522901381        5.0370792535        6.7121546963
  H         3.6315848375       10.4154788027        2.1639197181
  H         5.2950693461        9.8133601335        1.9039027826
  H         4.1342681123       10.4106524888        0.6641713360
  C        14.1119571642       -0.2437067154       -5.6790516457
  N        13.8476404408       -1.6134813512       -5.6934151621
  O        12.6631744253       -3.1010479862       -4.3220120868
  S        14.8008823220        0.5408267891       -7.0912963289
  C        13.9779561410       -2.4093106861       -6.8981527419
  H        14.1273181895       -3.4261799617       -6.5859542694
  H        14.8202983684       -2.1549913355       -7.5219239975
  C        12.6857505468       -2.2785991672       -7.6684061747
  H        12.5114880368       -1.2225587507       -7.8373906804
  H        11.8321934533       -2.6950475344       -7.2121250102
  H        12.6731046385       -2.7082043940       -8.6932409603
