352
 i =    64500, time =    32250.000, E =        99.6929449508
  H        11.9137388362        5.1918045811       32.2319317967
  C        10.8982160796        5.5855708839       32.4580499482
  H        10.4837767618        4.6747333956       32.8223119100
  C        10.0122470659        6.2512334612       31.3826826428
  C        10.9448329709        6.5831345080       33.6208449086
  C        10.2826751273        5.5302134161       30.0345904214
  H         8.9924707115        6.1563681489       31.5591216223
  H        10.1071729392        7.3040720148       31.3014596357
  H        11.3210495188        7.5094385720       33.2417672026
  H         9.9525144297        6.8532969917       33.9094865982
  H        11.6229680969        6.1874776557       34.3846550017
  C        10.0761595187        6.4696470771       28.8911180061
  H         9.7166086888        4.5563575656       29.8846436448
  H        11.2685197227        5.2521309976       30.1966357289
  C        10.4781603804        5.9750103740       27.4876231586
  H         9.0968789310        6.9780583872       28.9818368162
  H        10.6592340138        7.3207340028       29.1839535878
  C         9.3652724953        5.1554826940       26.7432786109
  H        11.2917621270        5.3381144422       27.7563869385
  H        10.8483822481        6.8571613588       26.8517374588
  C         8.3104431453        6.1748762936       26.2218524529
  H         9.8076177575        4.8229971767       25.8226615797
  H         9.0221978222        4.3106747208       27.3760586282
  C         7.2163287794        5.5070377645       25.3326816166
  H         7.8141052456        6.6178726586       27.0788396903
  H         8.8440021604        6.9081556012       25.5454094588
  C         6.8420028977        4.1681722528       26.0911325063
  C         7.7291450103        4.7120067228       24.1452920377
  C         6.0253418364        6.3412288988       25.1366057885
  C         7.2480644155        3.0957815599       25.3258280222
  C         6.1708233290        3.7820067747       27.2742649717
  C         7.8237415022        3.3676904876       24.0961694528
  C         8.2252311841        5.2334569162       23.0080560514
  H         6.3639882727        7.1938931510       24.4671693447
  H         5.9347610113        6.8992994839       26.0738084647
  C         4.8494368578        5.7579562893       24.4117545017
  S         6.7756929869        1.5480147409       25.9819500738
  C         6.0971276200        2.3900347797       27.3806642398
  H         5.8084239022        4.5290710726       27.9970618002
  C         8.1856477841        2.6559203215       22.9751794829
  H         8.2723385035        6.2216759704       22.7944943621
  C         8.6591195417        4.5608448605       21.8731529802
  H         5.1989097226        5.7314245384       23.4068857410
  H         4.7449798555        4.6408030695       24.5057690405
  C         3.5132117908        6.4930712763       24.4892205466
  C         5.7939385746        1.6715649715       28.7030140408
  C         8.5781023141        3.2182336519       21.7897072971
  H         8.1470012566        1.6033585801       23.0460901292
  C         9.0540153915        4.9343000159       20.6476839052
  H         2.8714526805        6.2392631940       23.6974615328
  H         3.7964678495        7.5056620691       24.2040321561
  C         2.9349278793        6.3276568435       25.8376009603
  C         5.9601191575        0.2806908480       28.9199889820
  C         5.2593408380        2.4823722381       29.8224638571
  C         8.8446263631        2.4881700064       20.4613746470
  C         9.0889310425        3.8886252695       19.7505184615
  S         9.4522182271        6.4689813756       20.0076778078
  H         2.1221912400        7.0407021861       26.0488871928
  H         3.7137818742        6.6686337468       26.5819211890
  C         2.2125310144        5.0499999968       26.1581371436
  N         6.4538636412       -0.7034083550       28.0090693525
  C         5.8321481104       -0.2742629841       30.2143996178
  C         5.1069561315        1.9113240231       31.0709392387
  H         5.0360994606        3.5235683562       29.7062317087
  C         7.6284971259        1.7103350438       19.8848363321
  C        10.0459510077        1.5544775147       20.7068992851
  C         9.4540916930        4.3684202325       18.5164881582
  C         9.7289482864        5.7457051354       18.4602487836
  H         1.5108031131        4.8374689035       25.4022676070
  H         2.8637125533        4.2515317525       26.1569582884
  C         1.4264509343        5.2141234228       27.4808180717
  S         6.7172569769       -2.0770130935       28.8523541680
  N         6.2742859642       -1.5720366813       30.3311863543
  C         5.3655981829        0.4699204410       31.3287794936
  H         4.7934798735        2.4490721534       31.9206342858
  H         7.3558435100        1.0806698791       20.6913083108
  H         8.0041748006        0.8827541120       19.2269109880
  C         6.4143163784        2.5418240428       19.3776565309
  H        10.2333763524        0.8879772193       19.8684374193
  H         9.7668030744        0.9598334258       21.5340939974
  C        11.2308481428        2.3336798472       21.2178833060
  H         9.5380426447        3.6526183382       17.6950615480
  C        10.0250580042        6.5670514365       17.2516074222
  H         0.7362795363        4.3850918364       27.7262560446
  H         0.7467333416        6.0579659258       27.4558720609
  C         2.2964461635        5.4055294013       28.6982898483
  C         5.2387082058       -0.2166658041       32.5558202028
  H         6.7368200857        3.2335682597       18.6070296328
  H         5.9465520850        3.1229321632       20.1802062875
  C         5.3216839038        1.6809498373       18.7226964175
  H        11.0685116749        2.7447339892       22.2018213801
  H        11.4604400367        3.2208282341       20.6004822199
  C        12.5535262190        1.5138524352       21.3627877536
  C        10.0773649934        7.9898625097       17.1573675512
  C        10.1451512192        5.7769357079       15.9476778316
  H         2.9841676678        4.5987066345       28.9953510483
  H         2.8050643912        6.3799262080       28.5580328849
  C         1.4405637523        5.6267944260       29.9463881074
  H         5.4839063702       -1.2383805693       32.5180184767
  C         4.8685675391        0.1591521714       33.8069005432
  H         4.8617220827        1.0833941444       19.5036167505
  H         5.8110375166        0.9436110304       18.0401598900
  C         4.1822902914        2.4112065072       17.9670775966
  H        12.4706933991        0.6728129104       22.0078612887
  H        12.6957764195        0.9991060697       20.3945158351
  C        13.8269644660        2.3656082556       21.5994000720
  N         9.6257582306        8.8743100821       18.1476194086
  C        10.3581580183        8.5905532866       15.9742438463
  C        10.3814611867        6.4783720998       14.7878878680
  H         9.9892086212        4.7229889048       15.9180192805
  H         0.6143204666        4.9806122725       29.9350988272
  H         2.0442415469        5.2860585725       30.7761198936
  H         1.2326254439        6.6567409942       30.1458723087
  S         4.5907913828        1.8085617300       34.3704492866
  C         4.8700850350       -0.8833496029       34.8641791995
  H         4.0036023207        3.3006238730       18.4701474713
  H         4.3952752374        2.6326279958       16.9566096409
  C         2.9001923150        1.6644270154       17.8537752721
  H        13.9742111649        3.2298995791       20.9113826918
  H        14.5875780329        1.6563485816       21.3419114068
  C        14.0362034091        2.8109695242       23.0039642727
  S         9.7191317920       10.3509873050       17.6089385983
  N        10.3286801765       10.0186076375       16.1288958102
  C        10.6207844254        7.9564906656       14.7449305158
  H        10.5360781589        5.8742389234       13.9037570593
  C         4.5192239395        1.0241579653       35.9775433054
  N         4.5349409772       -0.3186227504       36.0232662692
  O         4.9420823305       -2.1402428098       34.7200110135
  H         2.2343563135        2.3640690303       17.2499076272
  H         2.4972545303        1.6332352833       18.8744289718
  C         2.9125621332        0.3656161016       17.0902919692
  H        13.1228192311        3.1779171489       23.3195175721
  H        14.1507278327        2.0002057244       23.7056130127
  C        15.2027335264        3.8510335005       23.1386941362
  C        10.7302083962        8.7549911806       13.5197002785
  S         4.1535146097        1.8342788281       37.4309586146
  C         4.3712882343       -1.1664941130       37.1675221437
  H         2.2512622255        0.3819055940       16.2470406848
  H         3.8180771206        0.1353097764       16.6465763920
  C         2.6943497284       -0.8327762690       17.9253138382
  H        15.1950466551        4.3260781647       24.1460020404
  H        14.9154406707        4.7083850846       22.6658452282
  C        16.5733685706        3.3848516924       22.6144410899
  H        10.4345910544        9.7120639839       13.7552759956
  C        11.2238634604        8.4817153173       12.2673207330
  H         3.7968974249       -0.7711097134       38.0113425757
  H         3.8275516654       -2.0414890570       36.8391063799
  C         5.7702009077       -1.6148415142       37.7600146467
  H         3.0105135411       -0.7292098713       19.0018395776
  H         3.2779550237       -1.6037821350       17.4461535860
  C         1.2260120940       -1.2820126961       17.9348280938
  H        16.6243810427        3.2433989753       21.4878472252
  H        17.2879942885        4.1617515940       22.8933950208
  C        17.1007427384        2.0773922549       23.2730907737
  S        11.6763512511        6.9172848366       11.6651439476
  C        11.3112628388        9.6006905866       11.3357181141
  H         6.0866821062       -1.0451954775       38.6335479730
  H         5.7376830997       -2.6497357767       38.0160359185
  H         6.6021763606       -1.5105191159       37.1534985802
  H         1.1525290712       -2.0867404693       18.6647578071
  H         1.0435187733       -1.7930602565       16.9867566648
  H         0.4267402581       -0.4682369192       17.9781460698
  H        16.6385560609        1.9025345714       24.2987938016
  H        18.1758089165        2.2303295808       23.3566082846
  H        16.9669800744        1.1487631031       22.6992237402
  C        12.0595075703        7.7884291152       10.1891042747
  N        11.8501383022        9.1381184972       10.2100793484
  O        10.7971789424       10.7239320366       11.5331183469
  S        12.7411813477        6.9794360472        8.7224890437
  C        12.0893526986       10.0854144209        9.0971190183
  H        12.3534674583       11.0087961680        9.5470278914
  H        12.9671244310        9.7380692952        8.5016359001
  C        10.7400373430       10.3300003609        8.3857511009
  H        10.9930935763       10.8383944213        7.4755200283
  H        10.2160954539        9.4458424580        8.1242245080
  H        10.0818967585       11.0666668469        8.9063853555
  H         4.3052429179        1.4053097969       12.5968916907
  C         3.5540953646        2.2292630617       12.5890465318
  H         4.2012961300        3.0453744260       12.7054535773
  C         2.8427121644        2.4007888909       11.3249095299
  C         2.6349013635        2.1611273175       13.8223115162
  C         3.7304171358        2.7950797022       10.1343879801
  H         2.0031633897        3.1472681795       11.4507952967
  H         2.3289358035        1.5248876740       11.0728532337
  H         3.1772951760        2.0130292405       14.7536912347
  H         1.8160017611        1.4220266518       13.7171189010
  H         2.0837811803        3.0502519661       14.1711384763
  C         4.5517008715        1.5951291938        9.5228039956
  H         3.1134152922        3.1491323068        9.3028069910
  H         4.3698950460        3.7766939732       10.2977224359
  C         5.3443400447        2.0552102133        8.2075877523
  H         3.8375521665        0.7929629315        9.2091805999
  H         5.1518306292        1.0330928576       10.2351961269
  C         6.4660895596        3.0402778664        8.4423853861
  H         4.6513730830        2.4663681716        7.4795822504
  H         5.6891322614        1.1636064194        7.6671040976
  C         7.7305135495        2.4176188183        8.9954585979
  H         6.6277991878        3.5169979753        7.4812419067
  H         6.0644280454        3.6863198625        9.1988136803
  C         8.9955241349        3.3352602271        9.1326150378
  H         7.9455208138        1.5390828040        8.3593088940
  H         7.4393212881        1.8907660390        9.9087442984
  C         8.6572160636        4.6740221868        9.7500325206
  C         9.4017629152        3.9840091679        7.8153785591
  C        10.1274620215        2.5298055558        9.8362676461
  C         8.8235133324        5.7596859536        8.9315808352
  C         8.1346137440        5.1015904803       10.9879002135
  C         9.3822408328        5.3304977629        7.7231870532
  C         9.8490653739        3.3239484609        6.6313819859
  H         9.7082515281        1.9962918426       10.6835457679
  H        10.5810763968        1.7853092294        9.0944817883
  C        11.2636735937        3.4786585025       10.3121966307
  S         8.4075979345        7.2846937524        9.6039172429
  C         7.9903361683        6.4835413181       11.0621213643
  H         7.9995508923        4.3646120853       11.7988506127
  C         9.7520318234        5.9267400019        6.5523571418
  H        10.0200496252        2.2751476801        6.6067609962
  C        10.2227597897        3.9504186422        5.5260898550
  H        10.9381754039        4.4537578632       10.7340796880
  H        11.8552341866        3.6823304285        9.3842244355
  C        12.2876848210        2.9523745046       11.2785773450
  C         7.5136285983        7.1347803229       12.3209381360
  C        10.2081659413        5.3009862582        5.3951489590
  H         9.5672484742        6.9909402314        6.4234679656
  C        10.6999044466        3.5059845342        4.3251635003
  H        13.0778224149        3.6536359511       11.3584298716
  H        12.6910745382        2.0066052567       10.8245017574
  C        11.7573372917        2.4994519891       12.6707218585
  C         7.5523857288        8.5483396562       12.5708497305
  C         7.1904354580        6.2612552580       13.4261525425
  C        10.6627443377        5.8924654036        4.1153681273
  C        10.8856068730        4.5685267508        3.4243134362
  S        11.0290827017        1.9790349649        3.6348235168
  H        11.0446963758        3.3207365948       12.8752424089
  H        11.1704382152        1.5282752086       12.4851447174
  C        12.7581895022        2.4868322977       13.7719550457
  N         7.8457484167        9.6434892032       11.6966485163
  C         7.2502383468        9.0245572490       13.8536065203
  C         6.7937418597        6.7774125811       14.6630103058
  H         6.9942688616        5.2574391164       13.2382839252
  C        12.0236728625        6.7299867909        4.3202132922
  C         9.5952945238        6.6758525424        3.3471228313
  C        11.2756848865        4.1305226437        2.1525790150
  C        11.4329691166        2.7669548241        2.1087852767
  H        13.3290603084        3.4430145843       13.6466737625
  H        13.3102690351        1.5484615795       13.7797671402
  C        12.1106069985        2.5275313858       15.2170185378
  S         7.5197398998       11.0061434537       12.4717419599
  N         7.3804264237       10.4170515528       13.9562167725
  C         6.8818660980        8.2230194779       14.9346073347
  H         6.4256385124        6.0620071529       15.3766347326
  H        11.8304847731        7.5535872439        4.9777387605
  H        12.4575253270        7.2480675175        3.3314894282
  C        13.0947148062        5.8539278589        5.0260891166
  H         9.2844074004        7.4612897045        4.0404188491
  H        10.0709504329        7.1877454432        2.5061217899
  C         8.3599849611        5.7961890358        2.9160488902
  H        11.2634481539        4.8498585957        1.3626342701
  C        11.6518878166        1.9489181356        0.9098659474
  H        11.3665181249        3.2733911717       15.1203446706
  H        11.5035306976        1.6680171693       15.3772228097
  C        13.2086583538        2.6407948146       16.3315865078
  C         6.7462690340        8.7974868512       16.2322967488
  H        12.6574415891        5.5703839501        5.9550426914
  H        13.3120552259        5.0125929948        4.3962269421
  C        14.3526637767        6.5819956065        5.2573631070
  H         8.0293551844        5.1242965976        3.6684828590
  H         8.6648781603        5.2479101763        2.0214405007
  C         7.2243750481        6.7278149244        2.4310291379
  C        11.7508410243        0.5657100031        0.7785986870
  C        11.8245143745        2.7365382192       -0.3184380784
  H        13.9219145308        3.3540541439       16.0701712458
  H        13.6700562029        1.6623318978       16.4937195162
  C        12.7549850815        3.0168521163       17.7623142845
  H         6.7571090398        9.8910489581       16.2680762917
  C         6.5634304597        8.2181546046       17.4787273588
  H        14.1880653015        7.5887068980        5.6381951559
  H        14.9455976501        6.7300705786        4.3541868408
  C        15.3768139526        5.9477191406        6.1980512482
  H         7.1765735549        7.6474570684        2.9952610185
  H         7.4711533844        7.1511547954        1.4878877091
  C         5.9389228158        6.0023856111        2.4445401240
  N        11.3796618553       -0.2774783162        1.7750746280
  C        11.9903732634       -0.0375059353       -0.4835782636
  C        12.1145508282        2.1118435972       -1.5308479240
  H        11.6347688545        3.8803537499       -0.4025891008
  H        12.2805446700        3.9248605609       17.5777191267
  H        13.6527137779        3.0821935629       18.3902856373
  H        12.1977538032        2.1836284823       18.2128099508
  S         6.4302716949        6.5767899776       17.8433626317
  C         6.3571555534        9.0655933132       18.7027059634
  H        15.2026491695        6.4480798049        7.0804292039
  H        15.0440278456        4.9186466516        6.4508761901
  C        16.8236979503        6.0728631789        5.8039307440
  H         5.7295859587        5.8699736111        3.5053698453
  H         6.0532508363        5.1044345184        1.8241248971
  C         4.8270494124        6.8476696815        1.7871192835
  S        11.4631619310       -1.8155361213        1.1305463235
  N        11.9609478167       -1.4189770615       -0.4042873016
  C        12.2951309766        0.6640610044       -1.6260727874
  H        12.0987529580        2.6277136080       -2.4613761668
  C         6.1425250486        7.0403897629       19.5509474089
  N         6.1122614110        8.3436663918       19.7952054670
  O         6.4157888018       10.2875334733       18.6024233945
  H        16.9505726562        5.3933033086        4.9823553390
  H        16.8216623385        7.0731134454        5.4477558747
  C        17.7952567453        5.8315002229        6.9880702659
  H         5.0376564939        6.9936510035        0.6720005195
  H         3.8694438603        6.2868895560        1.8751446710
  C         4.5393726200        8.2340594967        2.3816726139
  C        12.4570779941       -0.0850176517       -2.8907884336
  S         5.7203712340        5.9888062300       20.8771373430
  C         5.9172037595        8.9103221549       21.1007711258
  H        17.4555571140        6.5129753812        7.7548208152
  H        17.6855514666        4.8368920241        7.3186910366
  C        19.2464443131        6.0323212199        6.6510500857
  H         5.2971050791        8.8005056898        1.9629590516
  H         4.7847196729        8.1878359103        3.4455591966
  C         3.2451553449        8.9798334575        2.0538474547
  H        12.3255291651       -1.2214395707       -2.8078844827
  C        13.0163147873        0.2893417219       -4.0843801560
  H         5.3782525236        8.2992772535       21.7706452496
  H         5.2253226420        9.7462899300       20.9194731216
  C         7.2101259939        9.2628571491       21.8349738910
  H        19.8599983884        5.9667812573        7.6067801744
  H        19.4399572045        6.9696867979        6.2809841611
  C        19.5865485022        5.0247908724        5.5458051304
  H         2.4066068752        8.2680528937        1.8617849208
  H         2.8734328819        9.6255555130        2.8254494426
  C         3.4520149932        9.7447952187        0.7114558491
  S        13.6943304778        1.8202420765       -4.4750497127
  C        13.1267693855       -0.8054999565       -5.0848540386
  H         8.1281389710        9.4132418582       21.1712898951
  H         7.3725908357        8.4996477804       22.5699762532
  H         7.0827821127       10.1933809230       22.3475149581
  H        20.6048863462        4.5779965383        5.6073025243
  H        18.8082876307        4.2381714968        5.5829395162
  H        19.5804299634        5.5305697228        4.6686437116
  H         4.0439677100       10.6154902157        0.7522102490
  H         3.9513117685        9.1425900402       -0.0695169800
  H         2.4983562642       10.0349752968        0.3143834056
  C        13.9830901051        1.0671544882       -5.9890443410
  N        13.7747651759       -0.3012887487       -6.1202571477
  O        12.5455098427       -1.9061823717       -4.9985555552
  S        14.5729777319        1.9795883462       -7.3389040651
  C        13.9465659101       -1.0275848370       -7.3295308253
  H        14.2343725237       -2.0924726431       -7.2791597972
  H        14.7985374512       -0.5722781857       -7.9599272864
  C        12.7231277385       -0.8213832882       -8.3273367895
  H        12.6289777968        0.2481476097       -8.3453496397
  H        11.7183983123       -1.2479593043       -7.9552822007
  H        12.8958819552       -1.2716195413       -9.2741801003
