352
 i =   132600, time =    66300.000, E =        99.4244814675
  H        10.2542229344        5.0962714599       32.5999871270
  C        11.0353894307        5.8177021599       32.5254752013
  H        10.6488418735        6.8345689792       32.7459576781
  C        11.7306807951        5.8217998305       31.1593789897
  C        12.0632498528        5.5910580790       33.6687230993
  C        10.6724279893        5.5722142586       30.0181780579
  H        12.0952405128        6.8609304298       30.9703386884
  H        12.3849524096        5.0098028603       31.1958685328
  H        12.4763659149        4.6041925074       33.5873988804
  H        12.7724053129        6.3467600505       33.7045202256
  H        11.5312172902        5.5422552423       34.5731246498
  C        11.2423468317        4.9538197096       28.7075459602
  H        10.2910524734        6.5201486295       29.7000362715
  H         9.8593077551        4.9281690719       30.2990867541
  C        10.6754871064        5.5248731209       27.4122997916
  H        12.3195449553        5.1509785626       28.7106120777
  H        11.1414888790        3.8841763396       28.7216748519
  C         9.3294496372        4.9404060857       27.0626322017
  H        11.3949192009        5.3968004524       26.6223621905
  H        10.5564223258        6.5824148585       27.3644053585
  C         8.3773522490        5.9926562450       26.4853586677
  H         9.4658273638        4.1749977654       26.2977824023
  H         8.9221540078        4.3935795015       27.8995768179
  C         7.2447160944        5.4373215928       25.6609332681
  H         7.9900638229        6.5399727858       27.3323172507
  H         9.0405180100        6.6951381357       25.9355922419
  C         6.9567774304        4.0211824450       26.3111329478
  C         7.7696868872        4.7233771164       24.4455616477
  C         5.9374858279        6.3005463512       25.3426148047
  C         7.2479320914        2.9401348901       25.4985397797
  C         6.4178556952        3.5596410915       27.5299327980
  C         7.6528081010        3.3580214294       24.2800872338
  C         8.2384399686        5.2873149718       23.2276223832
  H         6.0591932024        7.2560207998       24.7913347213
  H         5.5828586034        6.6951525430       26.2248108020
  C         4.6724462277        5.5601339785       24.7439734683
  S         6.8662175399        1.3905442048       26.1328672289
  C         6.4304876102        2.1984643865       27.6235698682
  H         6.2175634539        4.2294676700       28.3418876165
  C         8.0600042348        2.7425543542       23.1525117094
  H         8.3382554142        6.3490015043       23.2199405751
  C         8.4459651691        4.6459476453       22.0422820373
  H         4.9127433720        5.6539980393       23.6314950943
  H         4.5934568839        4.4790952074       24.8450587089
  C         3.4029050004        6.4057063884       24.8148868311
  C         6.0595619286        1.4436311621       28.9206524528
  C         8.4732019974        3.3516938964       21.9514466406
  H         7.9700268317        1.7180267608       23.1454649718
  C         8.9415284876        5.0424179259       20.8170327608
  H         2.6569773257        5.9644845771       24.0970030368
  H         3.7032509879        7.3876266391       24.4605314080
  C         2.8670123162        6.5887076032       26.2250389394
  C         5.9755931193        0.0043525001       29.0777835065
  C         5.6316063977        2.2400573536       30.0880814317
  C         8.9128580945        2.6453032734       20.7409844595
  C         9.2849698660        3.9298564662       20.0742642329
  S         9.2479426061        6.5306217351       20.1026681737
  H         1.9406565645        7.1205352874       26.1510768095
  H         3.4393448117        7.2426674242       26.8082898640
  C         2.7323349094        5.2706203494       27.0187059791
  N         6.2840755939       -0.8534244932       28.1124726228
  C         5.7569681130       -0.5682153999       30.3005296046
  C         5.3913713181        1.6279889648       31.2919758056
  H         5.5926917978        3.2882517732       30.0177779071
  C         7.8671584131        1.8165362833       20.0396463223
  C        10.2650456946        1.8858001182       20.9111544441
  C         9.7244756209        4.3177225228       18.7741065235
  C         9.7431489658        5.6741694346       18.6106243345
  H         2.1236659150        4.6580947118       26.3659473645
  H         3.7832095614        4.7888826774       27.0876089542
  C         2.0546754236        5.3604436961       28.3282866867
  S         6.4362911794       -2.4199509322       28.7153594103
  N         5.9865975298       -1.9615700493       30.2296921503
  C         5.3468976548        0.1228480039       31.4454868216
  H         5.0465499986        2.2612227034       32.0576739618
  H         7.2961214558        1.2844172051       20.7811201807
  H         8.3169214478        1.1280721158       19.3340460809
  C         6.8522862269        2.6900456019       19.3638523477
  H        10.5580419054        1.6135839481       19.8882189816
  H        10.0538472732        1.0614516884       21.5223089997
  C        11.4059334586        2.6881271019       21.5398851507
  H        10.1369743953        3.5860633579       18.1051157723
  C        10.1786001373        6.4411127401       17.3672526417
  H         2.0823943757        4.3549519322       28.7870339394
  H         0.9909570124        5.7375028862       28.1249158088
  C         2.7583032125        6.2451346456       29.3264180652
  C         5.1717725076       -0.5728232155       32.6913022281
  H         7.3627966644        3.2338805204       18.5381113234
  H         6.4886275139        3.5502046862       19.9374670474
  C         5.6796032218        1.8532449737       18.7964468254
  H        11.0665051807        3.2511468757       22.3967258754
  H        11.7789865412        3.5235630521       20.8937621164
  C        12.5659250219        1.8739662697       22.0009094560
  C        10.2099480309        7.8254039637       17.2336957517
  C        10.3882269049        5.6856670263       16.1085233714
  H         3.2849706968        7.0091233226       28.9178759923
  H         2.0662403263        6.8567925502       29.9696120353
  C         3.6962077266        5.5629431906       30.3622126431
  H         5.4016518992       -1.6195706776       32.6111348384
  C         4.8517901111       -0.1009518745       33.9592205106
  H         5.1344443746        1.3325430372       19.6412122802
  H         6.0167827927        1.1019557905       18.0438259642
  C         4.7146562626        2.8161001059       18.1339167517
  H        12.2563212095        1.0021871917       22.4681991738
  H        13.1574057599        1.5469051776       21.1439715379
  C        13.4675524134        2.6389718680       22.9380218301
  N        10.0395567097        8.7133820108       18.2786635318
  C        10.4250170189        8.4890117839       16.0309857898
  C        10.6045109204        6.3266111843       14.8785573236
  H        10.1934647635        4.6394110028       16.0736079048
  H         3.6652423474        6.1912215566       31.2958458193
  H         3.3198334423        4.5835667805       30.6385033581
  H         4.6881375609        5.4032824264       29.8880126730
  S         4.4508744880        1.4677523569       34.3321392935
  C         4.8625261814       -1.1094593115       35.0710358120
  H         4.7266959881        3.6995846039       18.8249168742
  H         5.1719099855        3.1162953827       17.1330127320
  C         3.2917328257        2.3524228041       17.9853652112
  H        13.0118727833        2.6549239129       23.9143420713
  H        13.5236656184        3.6593956463       22.5859408588
  C        14.9056939157        2.0054637646       23.0054803656
  S        10.0932871271       10.1825386581       17.6271681796
  N        10.3515808854        9.8611684453       16.0740590850
  C        10.6903310998        7.7945689460       14.7831769523
  H        10.9106866985        5.6999377589       13.9994635053
  C         4.2530200523        0.8625092824       35.9688414300
  N         4.4380886647       -0.4613191046       36.1868669514
  O         5.1254938555       -2.2687240640       34.9286945241
  H         2.7300148894        3.0296672677       17.3577008771
  H         2.8886373084        2.3907478200       19.0275172865
  C         3.2176550633        1.0274642148       17.3049396398
  H        15.1927858428        2.0193604363       24.0695219627
  H        14.8521991237        0.9129907258       22.6874369729
  C        15.8647427419        2.7463097289       22.1126669510
  C        10.9794021026        8.4972035016       13.6245671729
  S         4.0176841577        1.9140895002       37.4286276618
  C         4.3826321951       -1.2167106620       37.4601276329
  H         2.5368253378        1.0743593647       16.4451462152
  H         4.1585349196        0.6767993975       16.8635347586
  C         2.5662571084       -0.0566661705       18.2375928609
  H        16.2307991994        3.7282387363       22.5371502005
  H        15.3805541646        2.9234516646       21.1515769297
  C        17.1277329388        1.9155014768       21.8759858748
  H        10.4667582206        9.4436732223       13.5612632700
  C        11.5302027245        8.2410787385       12.3744627501
  H         4.1110302355       -0.5638651915       38.2787312667
  H         3.6057903121       -2.0227933420       37.3722292263
  C         5.7549530271       -1.7293800904       37.9004525128
  H         1.5802085738        0.1834284212       18.4870016841
  H         3.0876810910       -0.0453431895       19.1627593780
  C         2.7852479400       -1.4494739432       17.6973327722
  H        16.9126036778        0.9380496095       21.5182249423
  H        17.6636114302        2.4123923041       21.0972495955
  C        17.9916174087        1.7798719376       23.1043717407
  S        12.0570840926        6.6871467065       11.8677660039
  C        11.4982018115        9.3015538571       11.3633676814
  H         5.7724568914       -1.6290337199       38.9788072520
  H         5.9344776417       -2.7516976956       37.6774060563
  H         6.5673513804       -1.1515753970       37.4614154434
  H         3.8723644206       -1.8158222083       17.7622359750
  H         2.4653790446       -1.6392718872       16.6562716832
  H         2.2838544275       -2.1965694236       18.3669643621
  H        17.4543325426        1.6187227261       23.9814972595
  H        18.3402097342        2.8363773027       23.1078008403
  H        18.8503791246        1.0828262727       22.9886372614
  C        12.4513525242        7.5292507274       10.3521104420
  N        12.0602797119        8.8190137838       10.2696810538
  O        11.0262492147       10.4048994865       11.4984601413
  S        13.1595717175        6.8019011401        8.9322434424
  C        12.2849456307        9.7542796109        9.1755040532
  H        12.5623998767       10.7416557514        9.5981660176
  H        13.0537641723        9.4636195833        8.5752811667
  C        11.0217049419        9.8256510944        8.2991884405
  H        10.1433854586       10.3797903312        8.6759742280
  H        11.3554489203       10.1024532888        7.3216776282
  H        10.6481808448        8.8558125403        8.0494320001
  H         1.9963863752        1.6290627441       12.1097196528
  C         2.9177641958        2.2045605510       12.2695925954
  H         3.7161291037        1.4446407617       12.0847551873
  C         2.8995962331        3.2789488291       11.1778525272
  C         3.0742655665        2.7724892145       13.6381717704
  C         4.1916111179        3.2734274408       10.3306950138
  H         2.7562190341        4.1945493266       11.6475354296
  H         2.0347048039        3.1798182774       10.5078421934
  H         4.0146477753        3.2496670378       13.8652275292
  H         2.9126547769        2.0052597946       14.3569240351
  H         2.3842151431        3.6303933618       13.9236207874
  C         4.5518959827        1.9924760828        9.5973324401
  H         4.0723859243        3.9319671574        9.4419761239
  H         5.0132395312        3.6615920610       10.9434961799
  C         5.2414398945        2.2006435757        8.2937172176
  H         3.7074946117        1.3364320322        9.3682940750
  H         5.2208329490        1.4129724989       10.2451395172
  C         6.6527327499        2.9100822265        8.4123977847
  H         4.5199670233        2.7966356481        7.7358274304
  H         5.2514578686        1.3277301866        7.6838884982
  C         7.7611471418        2.0791342166        9.0302799992
  H         6.8903173412        3.1741295716        7.4188246014
  H         6.4743687019        3.8231564906        8.9598830440
  C         9.0829252021        2.8825758041        9.2819469401
  H         8.0170378504        1.3338428497        8.2381721900
  H         7.4001624429        1.6705011023        9.9751279537
  C         8.8037150847        4.2275336488        9.8933215607
  C         9.6032052052        3.4996434137        8.0048955119
  C        10.2053612406        2.0742062232       10.0501023484
  C         9.1778847058        5.2991401133        9.0834417957
  C         8.0484172660        4.6494095442       11.0289464425
  C         9.6418903658        4.8465921541        7.8949166268
  C        10.1140171023        2.8462467452        6.9037173262
  H         9.7721870118        1.9084679113       10.9937621354
  H        10.3671404812        1.1339658265        9.5372091685
  C        11.6074785644        2.7881805351       10.0931653271
  S         8.9065022476        6.7534270185        9.8697072086
  C         8.1465913695        5.9808238087       11.2338002751
  H         7.5213709620        3.9321625333       11.5916847623
  C        10.1091078097        5.4349644998        6.7387292422
  H        10.1998297698        1.7783224375        6.9865662920
  C        10.4619573195        3.3437911902        5.6776799688
  H        11.5526632586        3.8683196044       10.1159808673
  H        12.1289793027        2.4295894148        9.2645028346
  C        12.3378310213        2.3068269745       11.3614806414
  C         7.6998335572        6.7640463215       12.4805387601
  C        10.4962756337        4.6707730500        5.5644581871
  H        10.1495876547        6.4543139266        6.5378438368
  C        10.8405860405        2.8529195075        4.4497321321
  H        13.4181216102        2.6584946379       11.2999281315
  H        12.4150384805        1.1812942741       11.3499110268
  C        11.8315561399        2.7351665511       12.7067990126
  C         7.4437646998        8.0915250771       12.5829190272
  C         7.4928280467        5.9383059457       13.7527500096
  C        10.9405682224        5.2006806976        4.2113504868
  C        11.1409352518        3.8446423140        3.5708847025
  S        11.1451207002        1.3435618503        3.7591885880
  H        12.4776348578        3.6512950222       12.9616653543
  H        10.8472654360        3.1388966252       12.6554591230
  C        11.8854893238        1.7141807734       13.7651752390
  N         7.7789127917        8.9961993852       11.5695566539
  C         7.3544322593        8.7238984052       13.8525874808
  C         7.1282386984        6.5481708761       14.9283862322
  H         7.5095376095        4.8374138750       13.7412908745
  C        12.2247813986        5.9411546624        4.3117700313
  C         9.9477758326        6.1172174624        3.4314948508
  C        11.6212364066        3.4432290969        2.3396074783
  C        11.5619186301        2.0983902626        2.2309147531
  H        12.5482348266        0.9342926062       13.3268230571
  H        10.9177354022        1.2581159264       14.0258251216
  C        12.5377728813        2.3407030394       15.0257942463
  S         7.8321816808       10.4827037480       12.2459435886
  N         7.5418454079       10.0804511733       13.7306981155
  C         7.1119052614        8.0597523187       15.0259164569
  H         6.9912047699        5.8443219291       15.7423823761
  H        12.0734487665        6.8582114182        4.8873116449
  H        12.4845995314        6.3898407289        3.3523232697
  C        13.4254792230        5.1117040380        4.7281080743
  H         9.8739974970        7.1207079033        3.8244462381
  H        10.2972257110        6.1280635951        2.3108314411
  C         8.6023970802        5.3958575818        3.3477801111
  H        11.9022483776        4.2108799777        1.6699831278
  C        11.7713899387        1.4052486529        0.9140465316
  H        13.5923830491        2.4248916941       14.8833093539
  H        12.2190416563        3.3386991895       15.2249091291
  C        12.2805255094        1.4914676797       16.2724635458
  C         6.9372649389        8.7941820086       16.2675330566
  H        13.1272998252        4.5882632629        5.6106629871
  H        13.7123426341        4.2752579918        4.0708916596
  C        14.5403196177        5.9476480109        5.2915277320
  H         8.2130440782        5.0242660952        4.2882074720
  H         8.6528439156        4.4593405232        2.7219842016
  C         7.5407926854        6.3412727600        2.7766394968
  C        11.7255471123       -0.0129359699        0.8008348619
  C        11.9627603622        2.1353165337       -0.3285846278
  H        12.7015545505        0.4409242018       16.1241508349
  H        11.1976054186        1.3259899802       16.5215088562
  C        13.1608230384        2.2085277096       17.3433219455
  H         7.2732501488        9.8280398940       16.1474838348
  C         6.6303821413        8.3763246888       17.5425980749
  H        14.0272367895        6.5928482424        6.0254791738
  H        15.0350790383        6.5482414258        4.5361342134
  C        15.6316107516        5.1307550551        5.9855289824
  H         7.0378089243        7.0151407572        3.4940277773
  H         7.9875759777        6.9196793173        1.9950568455
  C         6.4416517405        5.5711463422        2.1409840875
  N        11.6426943499       -0.8959831094        1.8923720363
  C        11.9164203702       -0.6337771294       -0.4148576604
  C        12.1952724084        1.5178193514       -1.5512699957
  H        11.9532226927        3.2356061248       -0.2612038642
  H        14.2034106833        1.9695139245       17.3327191995
  H        12.7936910601        2.1101502719       18.3064959361
  H        13.2371027345        3.3268067547       17.1609496144
  S         6.3001177550        6.7346500144       18.0959216973
  C         6.6136595781        9.4470533878       18.6310342921
  H        15.3030871129        4.5566986932        6.7662927892
  H        16.0451067429        4.4840141841        5.1638388633
  C        16.8148438290        6.0129650018        6.4976347630
  H         5.7039477026        5.3445854886        2.8827299466
  H         6.7786461437        4.6760019048        1.6782953002
  C         5.6532317589        6.4143293441        1.1683040050
  S        11.5375334310       -2.4162350075        1.2263227368
  N        11.8950823010       -2.0571661284       -0.3003212319
  C        12.1431510081        0.0171791220       -1.6636045648
  H        12.4351443573        2.1520690483       -2.4392919738
  C         6.1517095022        7.4677515755       19.7228805756
  N         6.2550137842        8.8709079052       19.7346333080
  O         6.9117076835       10.6308422572       18.4495091565
  H        17.2872454457        6.4102122840        5.6167258336
  H        16.4289789015        6.9414277773        7.0269302348
  C        17.7734985160        5.1586087983        7.2551433204
  H         6.4035663487        7.0337055114        0.5578672665
  H         5.0200777982        5.8201092263        0.5690909756
  C         4.6944435500        7.3740729136        1.8984208767
  C        12.2795018651       -0.8211101502       -2.8186240436
  S         5.6817143338        6.5485372190       21.1123217122
  C         6.2897091156        9.6420713490       21.0075465067
  H        17.3016814858        4.7892147877        8.1654932326
  H        18.0534785062        4.2663844279        6.7238291208
  C        19.0775913432        5.8884804969        7.5541949069
  H         5.1733577644        7.9126119292        2.6510544478
  H         3.8616729294        6.8418690202        2.4128020553
  C         4.0692631939        8.3770783753        0.9110709373
  H        11.9343758611       -1.8022134873       -2.6607345762
  C        12.8159800324       -0.4904703157       -4.0545806787
  H         5.5956875400        9.3260948196       21.8118716368
  H         5.9071756646       10.5831426572       20.7179594816
  C         7.7396002313        9.7541975718       21.4643434743
  H        19.6841076296        5.1392786088        7.9797848946
  H        18.9236663292        6.6321153594        8.3369496666
  C        19.6801848355        6.5161891148        6.2468426056
  H         4.8016525014        8.8125291887        0.3589869905
  H         3.4347856772        7.8735282600        0.2480312304
  C         3.3030465964        9.5422783729        1.5825122785
  S        13.6031900673        0.9688570796       -4.4125096012
  C        12.9360219341       -1.5974420009       -5.0295114720
  H         7.9341737381        9.2063189150       22.4049587133
  H         7.9950776997       10.7808690219       21.6708847412
  H         8.4230101150        9.3740138784       20.7629024682
  H        19.7489506798        5.7993426865        5.4000536417
  H        19.1889482500        7.4847152420        5.9396469568
  H        20.6755822736        6.7998341287        6.4750170055
  H         3.8295687292        9.7428461897        2.4960825345
  H         3.3103959296       10.3964341132        0.8667036334
  H         2.2713970733        9.2676843208        1.8111662544
  C        13.7688201495        0.2201469382       -6.0253811627
  N        13.5521442677       -1.0963707263       -6.1240584606
  O        12.6269326054       -2.7135968889       -4.8824548453
  S        14.5191040316        1.0078031826       -7.4681099445
  C        13.7393872771       -1.8723752351       -7.3381822245
  H        13.8332703271       -2.8478429255       -6.9303126832
  H        14.7579842627       -1.6842284104       -7.8011541730
  C        12.5438479728       -1.7070875917       -8.3398888054
  H        12.4125194361       -2.3973302461       -9.2004168829
  H        12.5909420100       -0.7042706604       -8.7606046309
  H        11.6127324376       -1.7319641395       -7.8273673549
