352
 i =    80100, time =    40050.000, E =        99.9682027770
  H        11.6347119604        7.0764387562       32.0752439470
  C        11.4585870895        6.0168184515       32.1860154664
  H        12.3787157452        5.6040352612       31.9709108220
  C        10.4151531820        5.5203202981       31.1962566242
  C        11.0831418095        5.7535996552       33.6245707177
  C        10.7056046925        5.9539853228       29.7736680849
  H        10.1627522365        4.5008190023       31.4084869275
  H         9.4575996129        5.9955582309       31.3891755930
  H        10.2211817624        6.3333231852       33.9028602269
  H        10.8722466919        4.6681034299       33.7025873578
  H        11.9360546613        5.9758178497       34.2030690404
  C        10.5825672880        4.7344267597       28.9027038548
  H        11.7477701003        6.3401089271       29.7388973755
  H         9.9733717759        6.6842275753       29.4204826764
  C        11.0252250672        5.2196108710       27.4686292133
  H        11.2511742426        4.0010814585       29.2256676557
  H         9.5548237690        4.3124931668       28.9434187549
  C        10.0985395694        4.7992964376       26.3447858308
  H        12.0710899418        4.9308767284       27.2952280834
  H        10.9330649063        6.2927025495       27.4539698430
  C         8.8550719083        5.7801636566       26.1647016472
  H        10.6514125565        4.8848991809       25.3802899905
  H         9.8350919447        3.7485489747       26.5518068441
  C         7.7514193851        5.1629168019       25.4000137526
  H         8.4413180433        5.9455222760       27.1447232168
  H         9.2560046020        6.6479442652       25.6931473919
  C         7.2900510677        3.8305309723       26.0685178041
  C         8.1568306227        4.4494919330       24.1801541385
  C         6.5846085258        6.1984559743       25.2249946349
  C         7.5269505685        2.6952824406       25.3087501270
  C         6.6618312060        3.5113487305       27.2972463606
  C         8.0822926376        3.0812158850       24.1321485950
  C         8.6040982025        5.0498500513       22.9988697852
  H         6.8610069694        6.9987495453       24.5700208434
  H         6.1342775223        6.5769806502       26.1394908500
  C         5.3565883690        5.5807049885       24.6173459467
  S         6.9382724015        1.2681484579       25.9179158643
  C         6.4826844908        2.1112371940       27.3798381072
  H         6.4052986441        4.2590720298       27.9744021612
  C         8.4613915343        2.4579706082       23.0048264208
  H         8.5422559192        6.1975588375       23.0566611056
  C         9.0412411414        4.3572578945       21.9393285016
  H         5.6180141304        4.8826304720       23.7567691954
  H         5.0593272405        4.8677574503       25.4047721033
  C         4.1224870529        6.4267673034       24.3347657491
  C         6.0850081325        1.3781328037       28.5885107586
  C         8.9357088236        3.0314981866       21.8111315851
  H         8.4407921295        1.3656869296       23.0418874697
  C         9.3848992981        4.7119858426       20.6599045932
  H         3.5499947856        5.9564407691       23.5345325970
  H         4.5415679563        7.3452294389       23.9290109764
  C         3.2664034760        6.6811624662       25.6332996741
  C         6.1994244524        0.0038677459       28.8550552861
  C         5.5997861107        2.1751388170       29.7491254775
  C         9.3615105641        2.3379721640       20.5029654836
  C         9.6287108224        3.6961981936       19.8317920274
  S         9.4902590506        6.2862842245       19.9035726394
  H         2.5743323564        7.4917898520       25.5166705917
  H         3.9658333511        6.9201383735       26.4373187985
  C         2.4165109527        5.4517669305       25.9439537040
  N         6.3664781544       -0.9362114390       27.8840349580
  C         5.9386232385       -0.5552878054       30.1703546355
  C         5.3933432087        1.6987455146       31.0123525354
  H         5.2117957748        3.1334589020       29.4947387585
  C         8.0877262208        1.6080977118       19.9465475836
  C        10.5261173546        1.4957447586       20.7935898869
  C         9.8954683185        4.1615444041       18.4728166179
  C         9.8803092872        5.5347896904       18.3865799228
  H         1.8055837165        5.3503402411       25.1270300900
  H         3.0230020944        4.5660525283       26.0994477668
  C         1.4758747675        5.6077197893       27.1204589912
  S         6.4633026741       -2.3975874048       28.6318796059
  N         5.9540161862       -1.9418370356       30.0963405959
  C         5.6227164724        0.2107179153       31.2841542142
  H         4.9311216088        2.3126783136       31.7557310037
  H         7.7031714718        0.9929911151       20.7632148549
  H         8.5041950989        0.8818876489       19.2351509024
  C         7.0312577332        2.5619784739       19.4558423410
  H        10.7073347987        0.7746123932       20.0029912423
  H        10.3157052395        0.9152408751       21.6424970511
  C        11.7521892396        2.3397332909       21.2368778136
  H        10.1399045264        3.4439556722       17.7309815840
  C        10.1029347280        6.3256420477       17.1304490570
  H         1.0523466003        4.5814522729       27.3624625358
  H         0.5997049434        6.2483402414       27.0855186636
  C         2.2388466892        6.0974243444       28.3582988795
  C         5.4448297954       -0.4326013111       32.4779410701
  H         7.4374315863        3.0170699348       18.5603996011
  H         6.8454944439        3.4462002025       20.1178193301
  C         5.7484945699        1.8169351985       19.1115049541
  H        11.4252396872        2.9537034897       22.0972767770
  H        11.9780819422        3.0328796406       20.4342640485
  C        12.9783654907        1.5254052269       21.6173256213
  C        10.2830568371        7.7052328565       17.1020811511
  C        10.2238876399        5.5604429995       15.8516833741
  H         3.1848582046        5.5894635128       28.4773126736
  H         2.4802355122        7.2108983305       28.2373360980
  C         1.3541817889        6.0167351108       29.6338538487
  H         5.8017174039       -1.4894985351       32.5956123263
  C         4.9982043561       -0.0528256939       33.7283048850
  H         5.3393958122        1.5553311807       20.1137778771
  H         5.8936016829        0.9165247854       18.5691243992
  C         4.6110645814        2.6552366473       18.4393461273
  H        12.7247336569        1.0665814048       22.5475609719
  H        13.2083889862        0.6837320518       20.8950414137
  C        14.2002196692        2.4509099139       21.7473974004
  N         9.9880433826        8.5876029568       18.0902430170
  C        10.5868875460        8.3692782146       15.9170215098
  C        10.6391317509        6.2116964313       14.6974603746
  H         9.8757236907        4.5136614507       15.7728102351
  H         1.0169760680        4.9903914450       29.8707667595
  H         1.8170187710        6.3920934521       30.5401738074
  H         0.3886479966        6.5351539785       29.4990121809
  S         4.6180019668        1.5815340475       34.2121586503
  C         4.8441806148       -1.0381341033       34.7929146493
  H         4.4769122285        3.4107302804       19.1761650424
  H         4.8654223121        2.9870372348       17.4674600336
  C         3.2559814736        1.9881618575       18.3656302039
  H        13.8179469732        3.4661340839       21.8678534290
  H        14.7735833712        2.6049976658       20.7557772720
  C        15.1290690655        2.1110273054       22.9527103749
  S         9.9849898275       10.1182523343       17.4728046047
  N        10.3860331592        9.7326678241       15.9378204976
  C        10.8425152124        7.6923004075       14.6759959490
  H        10.8825229719        5.6676831532       13.8265748966
  C         4.4212883109        0.8740339725       35.8476163860
  N         4.5161841410       -0.4552211769       35.9621504495
  O         4.8837619879       -2.2507187981       34.5700214707
  H         2.6801017271        2.7763935700       17.9627180077
  H         2.9325719587        1.7320291169       19.3620199098
  C         3.2584422780        0.7974360534       17.3170119149
  H        14.3565757332        2.0120827557       23.7271637822
  H        15.4549566241        1.0380122334       22.9130834921
  C        16.1954157900        3.1516374582       23.2922701769
  C        11.2091031022        8.4207528171       13.5214265324
  S         4.1117320021        1.7740201066       37.2503470904
  C         4.4206331461       -1.1488472628       37.2609217311
  H         2.8620980202        1.1278945712       16.3605263366
  H         4.2368055559        0.4321248720       17.0453342727
  C         2.1885245995       -0.2797280940       17.7199624164
  H        16.3797491674        2.9566329974       24.4059833022
  H        15.7755298950        4.1482815684       23.1593633562
  C        17.5844782013        2.9303049486       22.6985382483
  H        11.1028818116        9.4742905545       13.6667646993
  C        11.6725747891        8.1265164505       12.2734768331
  H         3.7470590612       -0.6558059619       37.9079174420
  H         4.0326596176       -2.1525844723       37.1421596054
  C         5.8779072583       -1.3086598742       37.8088630261
  H         1.7989657748       -0.9039473936       16.8842019461
  H         1.3245313579        0.2611295952       18.2046074254
  C         2.9544720697       -1.1563436472       18.7223087854
  H        17.4502894424        2.8763178648       21.6285387702
  H        18.1025372673        3.8631628831       22.9231236783
  C        18.3332944250        1.8337544308       23.4505891143
  S        12.2547222667        6.5647993321       11.9066806996
  C        11.6331114298        9.1325733584       11.2208370579
  H         5.8993686983       -2.1793700094       38.4514175783
  H         6.5648708039       -1.5194776010       36.9941713294
  H         6.1892263880       -0.4302357201       38.2597673493
  H         3.3154871056       -1.9299741952       18.1033964483
  H         2.3148482623       -1.5217373878       19.5093876873
  H         3.8794891158       -0.6299066546       18.9898666599
  H        19.0737014735        1.3587897000       22.7982314524
  H        17.6803793585        1.0188873006       23.7613385305
  H        18.7555400823        2.0941667403       24.3978486113
  C        12.5618822228        7.3529110337       10.2962211407
  N        12.2747688778        8.6251416638       10.1470276922
  O        11.5867436430       10.3630214702       11.3698726916
  S        12.9941913709        6.5384474539        8.7647061678
  C        12.5141734786        9.4250305691        8.9832855163
  H        12.8895302675       10.3540907712        9.3527477555
  H        13.2866091701        9.1061480287        8.3446847663
  C        11.2148537170        9.6548758774        8.1921827321
  H        10.3179985748        9.2580976197        8.6697300775
  H        11.0156043954       10.6698526647        8.1802252623
  H        11.3354330304        9.3572142752        7.1310082737
  H         2.8147401210        1.1808781835       13.1864240372
  C         3.6488201494        1.6970126335       12.5974432420
  H         4.4460231761        0.9676734183       12.3912118924
  C         3.0056124820        2.2048861156       11.3133987478
  C         4.1736937577        2.7792324810       13.5196604249
  C         4.1132956299        2.6013338280       10.3330945520
  H         2.3602078706        3.0412531248       11.4596514605
  H         2.3891238059        1.4168170644       10.9462287346
  H         4.6929577062        2.4265304302       14.4029311014
  H         3.3331153388        3.4165205369       13.8471103992
  H         4.9346941906        3.4282641810       13.0893118703
  C         4.7921458376        1.3707082119        9.7034776647
  H         3.7803276937        3.4321397063        9.6868723814
  H         4.8493526487        3.1566712992       10.9114076956
  C         5.5986306584        1.6621147100        8.3879180683
  H         3.9624300701        0.7297582729        9.3917336401
  H         5.4663001682        0.7109759439       10.3183214459
  C         6.7569275969        2.6700239788        8.4777607563
  H         4.9696126163        1.9379886789        7.5551636856
  H         6.0803338047        0.7940452615        8.0464013328
  C         8.0477573073        1.9905807386        9.1133791556
  H         6.9378809537        3.0628210838        7.4824043216
  H         6.4347264591        3.5390208601        9.0519052670
  C         9.3424152554        2.8642769495        9.3794879025
  H         8.3736994879        1.0576324849        8.6629973232
  H         7.7821099191        1.6931577923       10.1286024878
  C         8.9896707402        4.1777702528       10.0467215501
  C         9.7618939414        3.5259538410        8.0941928509
  C        10.4912778949        2.1834768370       10.0527193748
  C         9.2029979977        5.2648965442        9.2156358125
  C         8.4532575701        4.5666493402       11.2904531329
  C         9.6294620443        4.8762703853        7.9622567934
  C        10.2011608399        2.9925736839        6.9257653038
  H        10.0670826252        1.7216014055       10.8358274296
  H        10.8740227353        1.3871550117        9.4525576393
  C        11.5974524802        3.0704173361       10.5137649643
  S         8.8537262263        6.7315002731       10.0416051385
  C         8.2956398091        5.8632369502       11.4069334590
  H         8.3522222219        3.7342835426       12.0015142362
  C        10.0491314462        5.5476696039        6.7986659650
  H        10.3196833831        1.9558571773        6.9434756494
  C        10.3965403425        3.6099079438        5.7441291621
  H        11.2208590088        3.8880707778       11.2110688215
  H        12.1182887196        3.4582401562        9.6556607375
  C        12.7959152948        2.4855776152       11.1523186938
  C         7.8929475133        6.5236146932       12.7088835222
  C        10.3468538091        4.9273684599        5.6142671491
  H        10.0935332108        6.6678569355        6.7326807185
  C        10.7883096509        3.1828185560        4.4777793012
  H        13.5561930135        3.1718584399       11.2649475893
  H        13.2384811603        1.6508982810       10.6458608504
  C        12.5449460874        1.8633494310       12.4930431760
  C         7.9082339466        7.8952148082       12.9630458821
  C         7.4365882843        5.6705247239       13.8358153122
  C        10.7436440589        5.5798850298        4.3611112694
  C        10.9230759173        4.2782060212        3.6217154077
  S        11.0978503998        1.6979461912        3.7345818735
  H        11.7412604958        1.1384241529       12.3803299200
  H        13.3918593105        1.2199916669       12.7127880732
  C        12.1633225263        2.8323921973       13.6174813492
  N         8.3254807966        8.9061710823       12.0450290044
  C         7.5344700426        8.4649391607       14.1667808795
  C         7.0109368227        6.1860511137       15.0614129559
  H         7.4130000190        4.6267687324       13.6072034376
  C        12.1295593386        6.3312004275        4.3319443593
  C         9.6720790655        6.3764755743        3.6946499748
  C        11.2387290489        3.9086555412        2.3339710183
  C        11.3472955192        2.5591993803        2.2263791692
  H        11.2365961925        3.4550808635       13.3246763053
  H        12.9581346327        3.5506278992       13.9507329640
  C        12.0305366447        2.0821838518       14.9098709889
  S         8.3939998899       10.4234222579       12.8257697671
  N         7.7763569257        9.8329641117       14.2358657208
  C         7.0664126271        7.7021077602       15.2964589651
  H         6.7124820832        5.5153017801       15.8452928679
  H        12.0264652881        7.2720116225        4.8687088115
  H        12.3282511337        6.5944656222        3.2719587424
  C        13.2704642758        5.5525145227        4.8736362947
  H         9.2904929511        7.1851950456        4.2958432045
  H        10.0454440494        6.8406907707        2.8309659602
  C         8.3793818957        5.6271734687        3.2847935373
  H        11.2676340163        4.7057682020        1.6041052423
  C        11.6828263699        1.7882266980        0.9934262226
  H        11.0748606328        2.4345820298       15.3360580560
  H        11.8241468158        1.0083215202       14.6992180696
  C        13.2195518854        2.2751446630       15.8260669076
  C         6.7392590511        8.4373387058       16.4676420193
  H        12.9831390398        5.1110988025        5.8133666623
  H        13.6345249167        4.8236295503        4.1672117592
  C        14.4957139690        6.3724891870        5.1978973926
  H         7.5036291813        5.9751028793        3.8397189722
  H         8.4470537538        4.5691515630        3.5401997126
  C         8.0749751605        5.5486869445        1.7682160761
  C        11.9156590871        0.3478687132        0.8302497822
  C        12.1804551851        2.5478352398       -0.0792280327
  H        13.4492903390        3.3908793863       16.0621701071
  H        14.1526341833        1.8830218403       15.3943134692
  C        12.9928025868        1.6760995831       17.1957991075
  H         6.6522130250        9.4441776276       16.3386788023
  C         6.4884602278        8.0182916809       17.7731236266
  H        14.1899790298        7.0540851028        5.9686268542
  H        14.6659692212        7.0167129972        4.3566792851
  C        15.6636100154        5.6061559887        5.6218808983
  H         8.2871915176        6.5061674663        1.3329250612
  H         8.7979752518        4.8164347567        1.3883167990
  C         6.6151680099        5.2492439684        1.5382958178
  N        11.8061983024       -0.6605627419        1.7924920856
  C        12.1736384176       -0.2329835954       -0.4051840395
  C        12.6753698596        1.9913883603       -1.2730652565
  H        12.1976728457        3.6035378667        0.0294098817
  H        13.8620015943        1.8327464544       17.7566248464
  H        12.6691096365        0.6441540098       17.0894162279
  H        12.2869126481        2.4059361390       17.6290559809
  S         6.5329860520        6.4354815023       18.4211475896
  C         6.2290798950        9.0989888859       18.6979945810
  H        15.4656834600        4.8423532817        6.2756440239
  H        16.2651144230        5.1994551777        4.7427892100
  C        16.6121828806        6.6207410892        6.3639985573
  H         6.3797665141        4.3163990650        2.0754006206
  H         6.4155121533        5.0412224212        0.4198122461
  C         5.5632081743        6.2315616097        2.0474895607
  S        11.9690934324       -2.1542854996        1.1271054690
  N        12.2418492367       -1.6218893857       -0.3524001427
  C        12.6138818882        0.5053571233       -1.4988100041
  H        12.9806474226        2.6155474109       -2.0394396335
  C         6.0630735714        7.2426567747       19.8980078490
  N         6.0628216676        8.5634068401       19.9116869462
  O         6.4003813959       10.3034489555       18.4621790361
  H        16.9860425850        7.3292336958        5.6428509163
  H        16.0201631261        7.2004600219        6.9894539149
  C        17.7729202879        5.9473556089        7.1742044437
  H         4.5507645030        5.9952554858        1.8048862449
  H         5.5578153117        6.3395980035        3.1368333153
  C         5.7856679248        7.6231076889        1.3843864385
  C        12.9143049647       -0.1936813709       -2.7184263797
  S         5.9516358672        6.4178377771       21.4049182379
  C         5.9734691816        9.3491927727       21.1921038742
  H        17.6777711746        6.1994459202        8.1839048512
  H        17.4135044702        4.9511483840        7.2063921594
  C        19.1172375142        6.1210229884        6.4899031559
  H         6.3456901385        7.5063572905        0.4281461619
  H         6.2611858899        8.4012895281        2.0333875219
  C         4.3844120950        8.1668697912        1.0206176615
  H        12.7758583659       -1.2393185164       -2.6402901878
  C        13.2976173719        0.2682250719       -4.0021261153
  H         5.4029731578        8.8203024803       21.9589925905
  H         5.2806087741       10.1796478131       20.9028797721
  C         7.3865720943        9.5994511101       21.7049811531
  H        19.8917714492        6.1045623178        7.3473629910
  H        19.3088060556        7.0032086487        5.9058673352
  C        19.4893127790        4.9631076680        5.5211841572
  H         3.9668493304        7.6255529269        0.1944119300
  H         3.5067019166        7.9195665305        1.7067913028
  C         4.2970609297        9.6846875032        0.8695033840
  S        13.7120946439        1.8877890561       -4.4002965336
  C        13.6046172644       -0.7256630657       -5.1326546784
  H         7.4872307965       10.3447633315       22.4157557052
  H         8.0656702281        9.7394398963       20.8798356104
  H         7.7593457880        8.7401757579       22.2759825270
  H        20.5131478255        5.1056106626        5.2670120976
  H        19.3653162373        3.9630377078        5.9732543373
  H        19.0170096344        5.1228249917        4.5695059818
  H         4.5190029491        9.9512902319       -0.1437200281
  H         3.2253114139        9.9913718777        1.1373710064
  H         4.8969645780       10.2015085984        1.6117424850
  C        14.1378321082        1.2781471391       -6.0060066865
  N        14.2264938218       -0.0636918142       -6.1115227043
  O        13.3600715951       -1.9374794094       -4.9925384198
  S        14.5931370116        2.2243492394       -7.3737486797
  C        14.5750038624       -0.7258121599       -7.2991350028
  H        14.8827010775       -1.6984930181       -6.9755332786
  H        15.5271531000       -0.4300593586       -7.8230028536
  C        13.4599520542       -0.7678628118       -8.3218063065
  H        12.6851150375       -0.0663014930       -8.0907459110
  H        13.0114933770       -1.7530524513       -8.2691174096
  H        13.7724026722       -0.5006926676       -9.3052406077
