352
 i =    17600, time =     8800.000, E =       104.8457241895
  H         9.5595081179        5.5022234789       31.4146512343
  C        10.4540668889        5.9428832073       31.8637169824
  H        10.2686087651        6.9508979722       32.1742618360
  C        11.5814765661        6.1691072275       30.8511043560
  C        11.0220182921        5.3232706174       33.1377937754
  C        11.4053252972        5.3392143273       29.5574120031
  H        11.7593872531        7.2696451868       30.7473901782
  H        12.5300015643        5.9017303729       31.3159656461
  H        11.1261926832        6.0735946963       33.9523645476
  H        10.3082687753        4.7091568848       33.6628263495
  H        12.0230400482        4.8459783633       33.0423726174
  C        10.6287486575        6.0564566267       28.5303574479
  H        10.7538528996        4.5199129699       29.8560705879
  H        12.3381460459        4.9594193119       29.1583959401
  C        10.7469551891        5.4132441475       27.2010423939
  H         9.6079380832        6.2536839158       28.6947685701
  H        11.0437730488        7.0797450740       28.4333117792
  C         9.5861267307        4.7107801198       26.6247044563
  H        11.6520018446        4.7428682199       27.0996893322
  H        11.0044814229        6.1974570108       26.5345095502
  C         8.6428972485        5.6788741644       26.0118334214
  H         9.8520011603        3.9535148261       25.8333075039
  H         9.0094925910        4.1823307437       27.4950834218
  C         7.4290908318        5.0017181789       25.2961919109
  H         8.3502782284        6.4198888510       26.7929867938
  H         9.1089107701        6.3256474452       25.2408576857
  C         7.0228165869        3.6549992060       25.8630704068
  C         7.9369660351        4.3674779654       23.9922946146
  C         6.2368609704        5.9319644755       25.1100564592
  C         7.2700826634        2.5818302910       25.0696093006
  C         6.6004613365        3.2028503386       27.1264458483
  C         7.8858946034        3.0169250564       23.8527696364
  C         8.4128199145        4.9974545293       22.8699888506
  H         6.4855455219        6.7656578521       24.3602274920
  H         5.9695736410        6.3692479124       26.0880112832
  C         5.0440129203        5.1528486728       24.5883771016
  S         6.7872206588        1.1194008177       25.7305497764
  C         6.4605207722        1.8673149210       27.1731887408
  H         6.6076891400        3.8905056867       28.0028290176
  C         8.3866746100        2.3809424234       22.7166488732
  H         8.5181360134        6.0451256671       22.8764781242
  C         8.8787837432        4.3913493955       21.7054066790
  H         5.2416264482        4.5069961389       23.8122772776
  H         4.7495709909        4.4936993504       25.2872654353
  C         3.8398843031        6.0347838881       24.1994582676
  C         6.0711180623        1.0935233538       28.3898631782
  C         8.8531469303        3.0496583663       21.6062315995
  H         8.5323600134        1.2514419093       22.7708745488
  C         9.3674138599        4.7510038850       20.4195671997
  H         3.0950580642        5.3558273907       23.7341239126
  H         4.0119226777        6.9364511372       23.5378293302
  C         3.1670595932        6.5332332201       25.5427446097
  C         6.0978505027       -0.3138461944       28.6106306956
  C         5.6648517916        1.8568277860       29.5892181363
  C         9.3554030202        2.3981531135       20.3527916729
  C         9.5883551005        3.6656384345       19.6575147670
  S         9.4328577119        6.3143249372       19.6041611096
  H         2.4083664767        7.2584849497       25.2015726179
  H         3.7798902379        7.0746832561       26.2725392186
  C         2.4604662241        5.5139248441       26.3277517921
  N         6.5918701814       -1.2816980771       27.6830221255
  C         5.7862285651       -0.9064458106       29.8211440039
  C         5.3232213188        1.3138915206       30.7914856364
  H         5.4661579995        2.8990843162       29.5153982079
  C         8.2325703765        1.5273203045       19.7242292466
  C        10.6308661829        1.6032800871       20.4822814419
  C         9.8744666254        4.0764298164       18.3074605643
  C         9.8728288230        5.4369960878       18.1749186377
  H         1.7207323302        4.9540768348       25.7881345589
  H         3.2541805612        4.7500918257       26.6803715630
  C         1.6806420222        6.1285934117       27.5505166608
  S         6.5438760410       -2.7101095776       28.4081420393
  N         5.9393266139       -2.2874040301       29.8232311119
  C         5.3719955532       -0.1129438588       30.9573759895
  H         4.8213566874        1.9454678388       31.5229209012
  H         8.2162644091        0.6069241638       20.1937952036
  H         8.5950912540        1.2356667187       18.7001370530
  C         6.8476100524        2.2279954974       19.5835255784
  H        10.8843292401        1.0925049075       19.5103838488
  H        10.4198271896        0.7950209707       21.1201631527
  C        11.8747377578        2.3877472455       21.0261898085
  H        10.0153489418        3.3670440318       17.5123872221
  C         9.8871575759        6.2545267090       16.8854689613
  H         0.9834973948        6.9084755386       27.1723213318
  H         2.4416140001        6.5488807930       28.2076544315
  C         0.8367582630        5.2580399743       28.4169601505
  C         5.0499193463       -0.8129018603       32.1770031911
  H         7.0728304370        3.2087330541       19.1622615681
  H         6.3258952830        2.4206474853       20.4822702177
  C         5.9040985738        1.4197400382       18.7099119376
  H        11.7366404580        2.7418559330       22.0652410530
  H        11.8464993806        3.3128663517       20.4390435630
  C        13.2156310911        1.6375980515       20.8939667374
  C         9.9736667716        7.6459416571       16.7726299910
  C        10.0647401682        5.4967720995       15.6034893011
  H        -0.0934261562        5.3801633333       28.0514109495
  H         1.2532489462        4.3093627499       28.4342581404
  C         1.0085560592        5.7243406640       29.9159634300
  H         5.0003863937       -1.8686407147       32.0328717741
  C         4.6673712998       -0.4470806358       33.4520678595
  H         5.5669485298        0.5643888450       19.2879122748
  H         6.4972371170        0.9952276266       17.8471837880
  C         4.7386295788        2.3063705711       18.1412702989
  H        13.0992200801        0.6574423094       21.2938131987
  H        13.4070976337        1.5139435172       19.8257475925
  C        14.4315551423        2.4141617930       21.3719659764
  N         9.7882465061        8.5764110718       17.8435118361
  C        10.2573747856        8.2728492672       15.6073929568
  C        10.3818484667        6.1683076463       14.4815518492
  H         9.8533483693        4.4667974981       15.5048076965
  H         0.5042838174        5.0009400170       30.5208970144
  H         2.0029321882        5.8765428761       30.1927749650
  H         0.6642610291        6.7095437065       30.1109283807
  S         4.4215244900        1.1864572756       33.9730583584
  C         4.5560177577       -1.4833673538       34.4933220534
  H         4.7479146672        3.2482051604       18.7849183748
  H         4.9453422035        2.5156066786       17.0646643048
  C         3.3680411491        1.8463687832       18.2701522025
  H        14.2656727204        3.4527593539       21.0160792967
  H        15.2955907875        2.0407993689       20.8594428803
  C        14.6506811799        2.4280968010       22.9068941804
  S         9.7757589221       10.0947934706       17.2261105697
  N        10.2271836306        9.6980120185       15.7088502189
  C        10.4672042862        7.6110728167       14.3876628211
  H        10.3414151189        5.6437899809       13.5654546099
  C         4.2225916995        0.4762442017       35.5685781288
  N         4.3110860820       -0.8911032179       35.6698430065
  O         4.7373611130       -2.7419069810       34.2883062964
  H         2.8421724341        2.5804989601       17.7780141013
  H         3.0411386621        1.8982504229       19.2601198277
  C         3.1699007415        0.3479066503       17.7984227635
  H        13.8518451445        2.9816133180       23.4603357082
  H        14.4529277091        1.4741898902       23.3986070651
  C        15.8578392606        3.1936734018       23.3539099711
  C        10.7388407301        8.3250445794       13.1955091736
  S         3.8321335266        1.2800063181       37.1330982881
  C         4.2792986763       -1.6889979777       36.9264545528
  H         3.1699058309        0.3323326975       16.7242419863
  H         4.0843530713       -0.2524298272       18.1095993571
  C         1.8776452810       -0.2826038852       18.1487284045
  H        15.5760105564        3.6918439663       24.2448999796
  H        16.2151381793        3.9265817332       22.5538083580
  C        16.9037375959        2.1203831002       23.7259807936
  H        10.6302211773        9.4001413332       13.3378111510
  C        11.3619522512        7.9078087490       12.0592355540
  H         3.4170663014       -1.4177081612       37.5277882805
  H         4.0718791187       -2.6928574680       36.7079644548
  C         5.5298845073       -1.4844122600       37.7957599258
  H         1.0540777219        0.3019536411       17.7356460991
  H         1.7525335273       -0.3500630930       19.1899218775
  C         1.7860415555       -1.7073718483       17.5531081130
  H        17.5666990039        2.4387284144       24.4975623613
  H        16.5241012012        1.2179110143       23.9944002078
  C        17.8993646371        1.9437620182       22.6199629377
  S        11.8695153854        6.3274325116       11.6475029584
  C        11.3590259877        8.9130590291       10.9191304048
  H         5.9587285265       -0.5077824619       37.6291756939
  H         5.1208639099       -1.5573719743       38.8039274944
  H         6.3014469482       -2.2347278771       37.6895686247
  H         0.9352653144       -2.2455957468       17.9170677636
  H         2.7325919921       -2.1401265305       17.7745654041
  H         1.7019905687       -1.6106267848       16.4459389416
  H        18.7140607228        1.6401574547       23.1819051509
  H        18.2022314486        2.8596988310       22.1700476251
  H        17.5889025965        1.2863475839       21.8789553359
  C        12.3377462036        7.0671933006       10.1059022717
  N        11.9405772722        8.3141002130        9.8443653008
  O        10.9077458684       10.0831075533       11.0349356297
  S        12.9598476833        6.3039216013        8.6294101214
  C        12.0488629623        9.0383824547        8.6416527499
  H        12.2792069428       10.0412402681        9.0389514604
  H        12.9952739660        8.9146104175        8.1104967651
  C        10.8700689602        8.9901221813        7.7936426416
  H        10.1355858522        8.2544992682        8.2456924844
  H        10.3616623789        9.9557501633        7.7005553409
  H        10.9740543836        8.7058794220        6.6886297710
  H         5.2808496016        1.5507453588       12.3982725487
  C         4.4810449156        2.2622981965       12.6221823244
  H         4.9206618308        3.3360071346       12.7867576411
  C         3.3160738697        2.1028343922       11.5997136427
  C         4.0096648664        1.7453657819       13.9902591542
  C         3.8181656965        2.4390906945       10.1568696221
  H         2.5214396247        2.7779281867       11.8713941951
  H         2.9002884322        1.1138286391       11.5281136710
  H         2.9738266996        1.4285726041       14.0474329115
  H         3.9973885515        2.6734280955       14.6003395276
  H         4.6457501967        0.9737326457       14.3740732157
  C         4.6794279445        1.3190815923        9.5072596176
  H         2.9310371600        2.6638955695        9.7172462526
  H         4.3678953922        3.3709092061       10.1142754914
  C         5.3727479206        1.8129089655        8.2088565022
  H         4.0170976301        0.4518739115        9.2777980179
  H         5.3501676312        0.9025633990       10.2186913484
  C         6.6113135129        2.7584441878        8.3681275887
  H         4.6283353533        2.3233123541        7.5674512331
  H         5.6960913766        0.8456551796        7.8049393968
  C         7.8143721309        1.9666456803        8.8290547976
  H         6.7590470186        3.2451990262        7.4101205237
  H         6.3551964680        3.4540429164        9.1651816783
  C         9.0675847512        2.8928654224        9.0516331333
  H         7.9955121490        1.2812984745        8.0339781281
  H         7.5248729548        1.5149695362        9.7407518104
  C         8.6714533597        4.1696263460        9.7920434538
  C         9.5280480778        3.6008316816        7.8852717357
  C        10.1921576916        2.1129932425        9.7780790532
  C         8.9388108223        5.2878391660        9.0257656010
  C         8.1128112864        4.4742001182       11.0473439384
  C         9.4488082384        4.9426264412        7.7968027684
  C        10.0101305625        3.0139239782        6.7144817602
  H         9.8880170558        1.7385696858       10.7530522360
  H        10.2712556053        1.1692303548        9.2642173324
  C        11.5090923237        2.9130403706        9.9840302678
  S         8.3574210082        6.7922633318        9.8141097798
  C         7.8710681275        5.8426070439       11.2391323225
  H         7.9316322164        3.6092455453       11.6604887967
  C         9.8554017207        5.6031454587        6.6358935720
  H         9.8767947192        1.9543706513        6.7115659545
  C        10.3565531330        3.6209933747        5.5704137475
  H        11.4660116544        3.8397493679       10.4673979420
  H        11.9393856581        3.0893836566        9.0402879940
  C        12.5614468940        2.1173487832       10.7229450175
  C         7.3672540346        6.4948393710       12.4743931174
  C        10.3526574088        4.9618381236        5.5031601796
  H         9.7609125545        6.6571458295        6.5871546345
  C        10.7207975628        3.1705875607        4.3274750775
  H        13.4450039602        2.8450926804       10.7550186390
  H        12.8050909509        1.1504207253       10.2294045911
  C        12.0818551557        1.9296609918       12.1397371999
  C         7.3953263045        7.8965522407       12.7188339717
  C         6.9995744050        5.6526245217       13.6202851121
  C        10.7904230802        5.6369619708        4.2202258603
  C        11.0153934679        4.3015193578        3.5546441778
  S        11.0342936290        1.5952037966        3.6985620684
  H        11.3376240739        2.6786304798       12.3524076235
  H        11.7110157662        0.9494786266       12.2391777280
  C        13.2039357611        1.8927521400       13.1824686677
  N         7.5186049246        8.9334324787       11.8133618990
  C         7.1540670088        8.4265142580       14.0147460814
  C         6.8311542052        6.1376407048       14.8818792917
  H         6.8966571968        4.6171725127       13.4280197740
  C        12.0417496658        6.4913124285        4.4860264766
  C         9.5944492778        6.4144953641        3.6236729962
  C        11.2968368000        3.8650536420        2.2350074190
  C        11.3243724500        2.5195257973        2.1291299028
  H        13.7103726076        2.8347352585       13.3360022201
  H        13.9773536037        1.2046483642       12.7950841259
  C        12.7155557573        1.3494168651       14.5215015065
  S         7.3227794475       10.3777798839       12.5695783346
  N         7.1100517525        9.7749855092       14.0168705305
  C         6.9201048609        7.6272845372       15.1746508199
  H         6.7685003641        5.4215957273       15.6738615184
  H        11.7780609920        7.1349452229        5.3314126831
  H        12.2084899398        7.1662562644        3.6110961760
  C        13.2438320364        5.6959027301        4.9589922949
  H         9.4299047288        7.2517745579        4.2520771467
  H         9.9661237935        6.7802775914        2.6417712342
  C         8.3173228254        5.6702309522        3.4904279176
  H        11.5416647389        4.5392948360        1.4646207480
  C        11.5437311450        1.7064231984        0.8903973215
  H        11.8355661222        0.6845081999       14.3411113664
  H        13.5412436304        0.7175172796       14.8410926622
  C        12.2270712031        2.4132780799       15.4286818722
  C         6.6743364144        8.2671438860       16.4202410049
  H        12.8545346422        5.1033941090        5.7701081006
  H        13.4750709750        4.8926820204        4.3022358460
  C        14.3267286414        6.7026834762        5.2688125797
  H         8.1173900408        5.0957748211        4.4169661935
  H         8.4495636983        4.8771203736        2.7252056502
  C         7.2288909778        6.4860790748        2.8085982135
  C        11.7179424243        0.2684193496        0.8642060343
  C        11.6229900250        2.3954409307       -0.3917278480
  H        11.2156915676        2.2427611831       15.7266712262
  H        12.2894908056        3.3975211669       14.8944041177
  C        13.0307303051        2.6070010425       16.7113937823
  H         6.8783566928        9.3612233195       16.5253620848
  C         6.5081621870        7.7679451749       17.6632338854
  H        14.0122434118        7.5134019234        6.0100580301
  H        14.4411436424        7.2817122392        4.3671403842
  C        15.7487136050        6.0894319014        5.5354560853
  H         7.0386434458        7.3170465798        3.5118547372
  H         7.7499132980        6.8695271368        1.9407179555
  C         5.9554135164        5.8130403619        2.3326197290
  N        11.3820873012       -0.6062016633        1.9004168181
  C        11.8770222301       -0.3678734500       -0.3474483109
  C        11.8166693914        1.6994601880       -1.6088743204
  H        11.3163674403        3.3804774760       -0.3752940330
  H        14.0765420895        2.6980810762       16.6160671317
  H        12.9318935021        1.7071792312       17.3397195901
  H        12.5963724718        3.4258497767       17.3080766971
  S         6.1555360511        6.1486318540       18.1167338086
  C         6.5038555841        8.7520862904       18.8056251020
  H        16.1418723409        5.5021288483        4.6989982356
  H        16.3340062195        6.9798193855        5.3912694612
  C        16.1636196595        5.6784475812        6.9532813743
  H         5.3807845048        5.4714232556        3.1864982048
  H         6.3333149630        4.9603959922        1.6892684667
  C         5.3363379997        6.7690064713        1.3539668658
  S        11.4857382762       -2.0993910485        1.4338983019
  N        11.9638594113       -1.7450297296       -0.1293189831
  C        12.1113660759        0.2527872525       -1.5861586021
  H        11.8202062593        2.2851095514       -2.5462601569
  C         6.1703749907        6.8150241596       19.7855057492
  N         6.2676280457        8.1246464381       19.9845754220
  O         6.6176626538        9.9915970691       18.7652993974
  H        16.1435899470        6.6137349800        7.5667208812
  H        15.3505101080        5.0040287781        7.3833552957
  C        17.5687114895        5.0457847473        7.0406614076
  H         6.1431991111        7.3342116305        0.7935998670
  H         4.8318058907        6.1209563840        0.6114509569
  C         4.3234638836        7.7207692017        1.9633189919
  C        12.4573030969       -0.5270169939       -2.8184250767
  S         5.9952021975        5.6892285614       21.2388258511
  C         6.2469034301        8.7885817100       21.2722648572
  H        17.6905543002        4.4315928098        7.8805583633
  H        17.5765296288        4.3349491790        6.2008333428
  C        18.6581162391        5.9990773882        7.1327049270
  H         4.6306292565        7.9967551108        2.9667065346
  H         3.2582173705        7.2596635562        2.0521685375
  C         4.1843835143        9.0196387884        1.2790656048
  H        12.6221423341       -1.5321246686       -2.7505289055
  C        13.0787655856       -0.1479473947       -3.9613663996
  H         5.6789015063        8.1143446483       21.9655268281
  H         5.6455487139        9.7070658718       21.2081016236
  C         7.6557428273        9.1731238831       21.6885116156
  H        19.3880026096        5.5289402774        7.6677667546
  H        18.3693085997        6.8547129763        7.7220277185
  C        19.5270012060        6.2951274082        5.8391763901
  H         5.1865770376        9.2602128503        0.8622932633
  H         3.5116776691        8.9986077755        0.4890114606
  C         3.7603194542       10.0440140128        2.2528421225
  S        13.4537450528        1.4019716831       -4.4899871682
  C        13.1517679491       -1.2189330191       -5.0176638401
  H         8.3084937954        8.3740463544       21.5648519247
  H         7.8320387342        9.3960296455       22.7135559142
  H         8.0948852605        9.8869174592       20.9740698056
  H        19.7593357717        5.4939824505        5.1963830768
  H        19.1884070713        7.1782311060        5.3302439470
  H        20.4731044228        6.5738384343        6.2759945725
  H         2.8296512196        9.6857752546        2.8053924828
  H         4.6570140051       10.0796728953        2.9016377966
  H         3.6117809130       11.0286219786        1.7993521807
  C        13.8850939975        0.7023647660       -6.0473119263
  N        13.8390611919       -0.6345060526       -6.0462757034
  O        12.7041180411       -2.3862138913       -4.8454604296
  S        14.5721293606        1.6044147354       -7.3610212186
  C        14.1019250822       -1.3963935334       -7.2054721052
  H        14.1231258080       -2.4893026463       -6.9240171683
  H        14.9862020361       -1.0440094144       -7.6345900664
  C        12.8421680066       -1.3058534789       -8.1186779368
  H        11.9210199079       -1.5531926163       -7.5443683422
  H        12.9186678387       -2.0205573708       -8.8879870291
  H        12.7155106843       -0.3016793043       -8.6097893350
