352
 i =   118900, time =    59450.000, E =        99.4018550193
  H         8.8670269861        5.1512436503       32.5177817110
  C         9.8624739642        5.5535669451       32.3894870909
  H         9.6643689044        6.6003851262       32.1358265791
  C        10.5699100910        4.8073640183       31.1871389283
  C        10.7654006864        5.3197682778       33.5632888361
  C        10.1933680304        5.3098510448       29.7957765596
  H        11.5855838708        4.5929808940       31.3776693602
  H        10.1534712301        3.7873598163       31.1962564099
  H        10.2802825560        5.6482158624       34.4742569665
  H        10.9575730753        4.2919349719       33.6874281400
  H        11.7432554310        5.8237414043       33.4246331462
  C        11.0970668326        4.6143801893       28.7365807462
  H        10.2137078486        6.4349397143       29.8430959539
  H         9.1562364807        5.0005437940       29.5918727963
  C        10.7744411477        4.9638481399       27.3163142541
  H        12.0995326201        4.8594670045       28.9635960019
  H        10.9788363201        3.5497177083       28.8463009769
  C         9.4237374735        4.3562115708       26.8222747817
  H        11.5295857651        4.5679321101       26.6194252860
  H        10.7369473770        6.0202448575       27.2197497538
  C         8.4374666973        5.3729618384       26.2518028764
  H         9.7203967129        3.6018561393       26.0991109748
  H         8.8941848315        3.9536645311       27.6596704649
  C         7.1489276065        4.8031727367       25.5479797621
  H         8.1341753687        5.9790264563       27.1915694417
  H         8.9086527360        6.1326104280       25.6042820596
  C         6.7156316774        3.4487845493       26.1848391717
  C         7.4298591574        4.0898842345       24.2956285524
  C         5.9116948830        5.7970787280       25.3729571846
  C         6.8995916904        2.3517695911       25.4580978012
  C         6.1334850654        3.0865585276       27.4178908630
  C         7.4688629333        2.7069205400       24.2998923032
  C         7.9552088267        4.7003840798       23.1659119436
  H         6.2802033630        6.5410759031       24.7258084675
  H         5.8183661594        6.3341862876       26.3013832497
  C         4.5863852191        5.1913401884       24.8690517217
  S         6.4927037579        0.8872599429       26.1944898429
  C         5.9602374898        1.7700060478       27.5482546035
  H         5.8726521004        3.8811010499       28.0702873647
  C         7.9514150673        2.0625094183       23.1853952142
  H         8.0396211466        5.7833899438       23.0922281442
  C         8.2925983380        4.0521038112       22.0242781574
  H         4.7270295316        4.7224991078       23.9004951365
  H         4.3434506103        4.2747362656       25.4949809591
  C         3.3922318051        6.1645720652       24.9593918407
  C         5.4804191924        1.1522642163       28.8152373287
  C         8.3535569357        2.6432506674       21.9665323569
  H         7.9167209724        0.9925533194       23.0444030839
  C         8.7019556035        4.4116943095       20.7390148770
  H         2.6754478806        5.5774716847       24.3441243501
  H         3.4958173402        7.1944192709       24.5388457292
  C         2.9940526789        6.1557710169       26.3963978681
  C         5.5541719254       -0.2180253558       29.0790597445
  C         5.0945176625        2.0433814551       29.9326694336
  C         8.6928019116        1.9459720792       20.6704445802
  C         8.9311400722        3.2738053784       19.9298583859
  S         8.9805722886        5.8997487943       19.9576756828
  H         2.3066081813        6.8708645380       26.4031060095
  H         3.7423757827        6.5396993055       27.0456226276
  C         2.5423865897        4.8793153356       27.0162700009
  N         6.1263929295       -1.2457615171       28.3020562105
  C         5.3082669483       -0.7077450798       30.3603745058
  C         4.7524974572        1.5790293089       31.1953949050
  H         4.9526114374        3.0252180926       29.7335663889
  C         7.5696074630        1.1292110550       20.0040452089
  C         9.9903690387        1.0977653748       20.8549518959
  C         9.2489791225        3.7024008556       18.6127716730
  C         9.3864021553        5.0833922941       18.5349452333
  H         2.2856236082        4.1659301938       26.2928250465
  H         3.4010352469        4.4492511732       27.5273809886
  C         1.3553693441        5.0890940178       27.9602342309
  S         6.0916292470       -2.6685709174       29.0932313388
  N         5.5614075274       -2.0287027543       30.5312425563
  C         4.8442819230        0.0803476053       31.4830212131
  H         4.4604267162        2.1827657275       31.9790563231
  H         7.3915184712        0.2843206101       20.6367495321
  H         7.9430379603        0.5585990320       19.1363880444
  C         6.2751865479        1.8402197331       19.6274075302
  H        10.0978365440        0.4943462275       19.9201601883
  H         9.9437061485        0.4074181452       21.7102501540
  C        11.3196963445        1.8672907363       20.9777478622
  H         9.3046880498        2.9182725264       17.8632482734
  C         9.6474185498        5.9049984542       17.2811101394
  H         0.9728514554        4.0739744710       28.0458971852
  H         0.5599563306        5.6516259729       27.4341179110
  C         1.6599067862        5.7657205894       29.2954146670
  C         4.6480736138       -0.5856554033       32.7457465373
  H         6.3979666748        2.8114278309       19.1443921642
  H         5.7905778515        2.0931086001       20.5201665677
  C         5.2313957669        1.0629014633       18.7943401590
  H        11.3421981945        2.4801169764       21.9035877736
  H        11.5351811069        2.4705889706       20.0361389677
  C        12.5987945325        1.0016804623       20.9808605048
  C         9.7863938641        7.3394599206       17.1663507112
  C         9.9279562219        5.0896087909       16.0469714990
  H         2.5809420744        6.2849787862       29.1488422833
  H         0.9428734454        6.5526918238       29.4305436754
  C         1.8558777375        4.8279108066       30.4997534685
  H         4.4867991774       -1.6605862668       32.8030754552
  C         4.3996497140       -0.1805804820       34.0050827152
  H         4.5727265942        0.4693589809       19.3930660252
  H         5.8334175475        0.3084087465       18.2668070411
  C         4.5177720652        1.9920317805       17.8639846311
  H        12.4139745439        0.0692749180       21.4912570388
  H        12.7516214342        0.6980688473       19.9619206939
  C        13.8127948892        1.7011003271       21.4334582729
  N         9.4002763561        8.2469185305       18.1915583244
  C        10.0696444302        7.9343196731       15.9735831488
  C        10.2537835340        5.7349265434       14.8406385757
  H         9.8768069637        4.0747477492       16.1453639636
  H         2.1772609640        5.4471004113       31.2914473170
  H         0.9793786954        4.3722186344       30.8684845666
  H         2.6455803737        4.0834009737       30.2879195190
  S         4.3028861888        1.4117429094       34.5084892485
  C         4.2163201525       -1.2059080744       35.0351401676
  H         4.4417892705        3.0151808336       18.1902029854
  H         5.1292368248        2.1308069688       16.9929766963
  C         3.0992017395        1.5173930941       17.6282201057
  H        13.4755918315        2.0753462393       22.3654780730
  H        13.9413542014        2.5161527914       20.6899960876
  C        15.1019554060        0.8562164280       21.4601184538
  S         9.5669957719        9.7019436475       17.5992073717
  N        10.1564457817        9.3180952954       16.1498289549
  C        10.3674565905        7.2030699748       14.8178917489
  H        10.3945710141        5.0401876508       14.0347289220
  C         3.9844036847        0.7389342309       36.1089671111
  N         3.9330195133       -0.5766002427       36.1973067090
  O         4.2335494913       -2.4175640795       34.8693198991
  H         2.6082281785        2.3554667421       17.0258203195
  H         2.4584489398        1.5005119455       18.5490849420
  C         2.9106100838        0.2417666333       16.8321253828
  H        15.0644865131        0.1733912932       22.2950313313
  H        15.1669329787        0.3822888037       20.4771468047
  C        16.2810360420        1.8956038189       21.7120347336
  C        10.7080989679        7.9436431103       13.6348357304
  S         3.4625649172        1.6168265681       37.6516547233
  C         3.7433773180       -1.2908832637       37.4435965166
  H         2.4496392390        0.5100397421       15.8573509169
  H         3.8668728032       -0.1453021073       16.6238190061
  C         2.2799903923       -0.8963526014       17.5693997831
  H        15.8743914655        2.8156103120       22.1026460126
  H        16.6422266616        2.0999780729       20.7066158610
  C        17.3963508248        1.4165403867       22.6232151923
  H        10.6662128334        9.0504976277       13.8002154216
  C        11.1392169345        7.6014791482       12.3687803302
  H         2.9433786315       -0.8588035395       38.1058662402
  H         3.4675073393       -2.2904305454       37.1522338820
  C         5.0723141688       -1.3973681468       38.2295421751
  H         1.3554810411       -0.5598015028       18.0103789326
  H         2.9746670145       -1.3328215367       18.3345694506
  C         2.0388432615       -1.9756203190       16.4770540624
  H        17.7270562189        0.4478849512       22.3979582106
  H        18.3752917609        1.9770538604       22.4570153486
  C        17.0365918536        1.4086596047       24.0632864101
  S        11.5909611063        6.0488197280       11.7726557580
  C        11.2705143568        8.7758005680       11.4655013493
  H         5.7959358847       -0.9022810731       37.6888795618
  H         5.0390476693       -0.9189346482       39.2263517972
  H         5.3192592515       -2.4723455971       38.2976528964
  H         1.5971306694       -2.9302682287       16.8756548155
  H         3.0386796223       -2.2874765524       16.1342548930
  H         1.4200954955       -1.5080216453       15.7317824094
  H        16.2269069579        0.7592097334       24.3878408032
  H        16.7671369951        2.3856788589       24.2675538695
  H        17.9341391976        1.3104768692       24.6603644358
  C        12.0493104775        6.9834847580       10.2549567559
  N        11.7120555350        8.2744977438       10.2937516595
  O        10.9113566446        9.9080907792       11.7258722844
  S        12.7063215605        6.3790306757        8.7946039588
  C        11.7809836395        9.1350164596        9.0764737878
  H        12.0487752573       10.1692303272        9.3770803675
  H        12.6139473965        8.9545101556        8.4710291197
  C        10.4916728159        8.9503622003        8.3781869060
  H         9.8773576385        8.0809110990        8.7143324850
  H         9.8519693086        9.8072722802        8.4701405813
  H        10.6046198965        8.7633663298        7.2826527460
  H         3.6601608602        3.6448549656       12.4010848443
  C         3.0791090895        2.7682515385       12.4130499420
  H         2.2156944713        3.0729091026       13.0715662768
  C         2.6676111724        2.3175937004       10.9830121398
  C         3.9130455520        1.7032914893       13.1000226572
  C         3.7086051675        2.5388660690        9.8817276179
  H         1.8067629802        2.9766843842       10.7907125772
  H         2.2634661913        1.2892831148       11.0280310980
  H         3.1797680841        0.9778195091       13.5759548427
  H         4.5013659822        2.0719992108       13.8839595108
  H         4.6419311244        1.1899002956       12.4719007624
  C         4.4685812574        1.3090410992        9.3872945113
  H         3.2661119692        2.9837835323        8.9787122305
  H         4.4689021280        3.2185471714       10.3293095470
  C         5.1316704572        1.6009390527        8.0236364697
  H         3.5860015851        0.6715246717        9.3299058389
  H         5.1158831344        0.9465840372       10.1690339372
  C         6.4523052154        2.4249381920        8.2834200736
  H         4.4405035859        2.1798465214        7.4025418299
  H         5.3991666287        0.6592139962        7.5177512677
  C         7.5641350110        1.6598685861        8.9982240057
  H         6.8214456159        2.8415852728        7.3599365370
  H         6.1907904040        3.3138025045        8.9430349564
  C         8.8242014578        2.5336098118        9.1874212167
  H         7.7429046197        0.8266673927        8.2552962843
  H         7.1879567964        1.2799928804        9.9606945667
  C         8.2729135561        3.8275206556        9.8759578206
  C         9.1824654705        3.3650829667        7.9777985700
  C        10.1519149462        1.8215797071        9.8181979342
  C         8.3455794519        5.0093804568        9.1259734172
  C         7.6464685130        4.0762513422       11.0687024270
  C         8.9217032756        4.6755538307        7.9403156757
  C         9.6550944415        2.7844683107        6.7738243121
  H         9.9939416679        1.3811034658       10.7990282850
  H        10.5597696017        1.0362123723        9.1993868880
  C        11.2909422102        2.7087469540       10.2282569851
  S         7.6859373314        6.4082202804        9.8451763193
  C         7.4877419518        5.4499878730       11.2733378430
  H         7.4703722227        3.2117438598       11.7312683125
  C         9.3132402089        5.3597291591        6.8143999163
  H         9.7814430202        1.6982865651        6.7685978231
  C         9.9794868439        3.4917905736        5.6478487235
  H        10.8575966777        3.5384360710       10.7448769386
  H        11.8118192235        3.0251664587        9.3360407844
  C        12.4052133659        2.2250071187       11.1794803430
  C         7.1328970154        6.1116701476       12.6262632492
  C         9.8794892543        4.8508642792        5.6123948603
  H         9.1714419328        6.3973375276        6.8141184065
  C        10.3459806579        3.1678004590        4.3709151162
  H        13.1888543573        2.9692251385       11.1212524535
  H        12.7854409302        1.3306111980       10.7743368522
  C        11.8767732683        2.1185904105       12.6294523032
  C         7.3286068300        7.4883223655       13.0034141545
  C         6.7580179819        5.2495608412       13.7969116958
  C        10.3221025382        5.6483636914        4.3199756760
  C        10.6387657014        4.3023106146        3.6253541915
  S        10.8161549530        1.6700074054        3.6091589232
  H        11.4123797870        2.9828510857       13.0290243902
  H        11.0873498682        1.3839966528       12.6193938141
  C        12.9119550456        1.9435463031       13.7277900965
  N         7.6321521047        8.4543316610       12.0457049522
  C         7.1849312997        8.0024797110       14.2404989695
  C         6.6492278726        5.7256598760       15.0987602202
  H         6.3571850847        4.2622994217       13.6272991167
  C        11.5969934614        6.5834080406        4.4162291544
  C         9.0435056051        6.3013629438        3.7368521062
  C        11.2252433185        3.9621036669        2.3766509908
  C        11.3107687434        2.5871787210        2.1538141002
  H        13.5102414416        2.8517138817       13.7000793148
  H        13.5618227169        1.0381564011       13.4763075558
  C        12.2992246761        1.8436494816       15.1287893912
  S         7.6516650041        9.9040817635       12.7820206317
  N         7.2562312321        9.4317520279       14.2918923079
  C         6.8061169659        7.2018480427       15.3745018045
  H         6.2378751655        5.0008771881       15.7741738167
  H        11.3739797362        7.5571415573        4.9541508675
  H        12.0005404816        6.9096231609        3.3816422053
  C        12.6588801103        5.9162798810        5.2011212921
  H         8.6573280451        6.9626512811        4.5412910276
  H         9.3152690276        6.8701946667        2.8279120201
  C         7.9447345818        5.2697572522        3.4581109921
  H        11.4514860093        4.7331328250        1.6521407017
  C        11.7534992185        1.8920708671        0.8874188554
  H        11.8383515710        2.8264693126       15.3083347467
  H        11.4715828456        1.1101506068       15.1335489248
  C        13.3835553404        1.4388540204       16.1508624189
  C         6.6379759443        7.8848765619       16.6382870678
  H        12.2758076273        5.7283112308        6.1784890489
  H        12.8647256754        4.9442947761        4.7373383637
  C        14.0095009511        6.6086063700        5.2785046346
  H         7.6836366023        4.6758651457        4.3283392868
  H         8.2055648191        4.5415126640        2.6875337990
  C         6.5705603541        5.8150260817        3.0603331584
  C        11.7609556561        0.4881484298        0.7313762583
  C        12.1223019020        2.6445428005       -0.3322816747
  H        14.4019664109        1.3132286941       15.7045713279
  H        13.2797465665        0.4021241851       16.5733362702
  C        13.5058936439        2.5674847378       17.2156634347
  H         7.0583083544        8.9152706992       16.6886833758
  C         6.3127977630        7.3879166517       17.9047185361
  H        13.7741113265        7.3365223994        6.0303906693
  H        14.3470194755        7.1621235428        4.3725609402
  C        15.1380491330        5.6806746630        5.7313913718
  H         5.8230770692        4.9652461703        3.0704330933
  H         6.2037789228        6.4901641574        3.8590556177
  C         6.6143711138        6.7201142770        1.7423625984
  N        11.5612015662       -0.4115581803        1.7562154112
  C        12.0339038770       -0.1923374885       -0.4084899817
  C        12.3047289422        2.0232616222       -1.5276760446
  H        12.0948252684        3.6989525222       -0.2884957751
  H        14.4300373875        3.2417863375       17.0319092897
  H        13.6914663051        2.0453175657       18.1675268786
  H        12.5646064171        3.1823200090       17.3510731637
  S         6.0049264029        5.7905470197       18.4029123952
  C         6.2062002713        8.4084721273       19.0056746442
  H        14.8149991134        4.8328125244        6.2830336493
  H        15.6022851017        5.3651854965        4.8401982302
  C        16.1234563950        6.4765197271        6.5215973381
  H         7.1340148971        6.1630162452        1.0350850224
  H         7.2075264478        7.5512447678        2.0900718503
  C         5.1359253561        7.0446680923        1.2513226570
  S        11.8215845647       -1.9651750876        1.3113705662
  N        12.0696526591       -1.5924966044       -0.2394200027
  C        12.3565996644        0.5371490458       -1.6027371099
  H        12.5481779816        2.6838365922       -2.3825591137
  C         5.7810512930        6.5632220861       20.0155919736
  N         5.7680067540        7.8780488051       20.1472744933
  O         6.2534405727        9.6317172827       18.8417455567
  H        16.6441751630        7.1290470677        5.9043365865
  H        15.6284838238        6.9872146530        7.3354780289
  C        17.0703881169        5.3560391446        7.1444222939
  H         5.2383664330        7.4915045996        0.2730792563
  H         4.5290513438        6.1451938763        1.0530981852
  C         4.3643164710        7.9072485613        2.2424814039
  C        12.6337442267       -0.2390138621       -2.8047506203
  S         5.3194082260        5.6109734051       21.4385456562
  C         5.5180575594        8.6812191923       21.3519373620
  H        16.5540274281        4.8962988817        7.9882728106
  H        17.2604143383        4.5519877712        6.3770579367
  C        18.4004749794        5.8381816582        7.6600735245
  H         5.1454020159        8.4083482742        2.9058159537
  H         3.7018292996        7.3346340076        2.9061407025
  C         3.6677359595        9.0098856482        1.4490487603
  H        12.0978907663       -1.1402346663       -2.7817784272
  C        13.1968142565        0.0392715661       -4.0210579046
  H         4.9701545759        8.1638669723       22.1114697906
  H         4.9652125342        9.6285082130       21.1927251378
  C         6.8999813577        9.0509044981       21.9286778590
  H        18.8328509161        5.0352019158        8.2914229389
  H        18.1483929591        6.7244164671        8.3141541584
  C        19.4347158975        6.3228121611        6.6504593634
  H         4.3514640160        9.4110588048        0.7245933191
  H         2.8957821109        8.4780627358        0.9311907758
  C         3.0805907056       10.1107816609        2.3741301368
  S        13.7918947825        1.6490687417       -4.4259783432
  C        13.2002887734       -0.9701674687       -5.0732964618
  H         7.7371270343        8.9923565319       21.2829598893
  H         7.1302797100        8.4360495701       22.7335506453
  H         6.7974699722       10.0688333997       22.3955347299
  H        19.2752331428        7.3686577865        6.5692976331
  H        20.4802957384        6.0610963149        6.8073327069
  H        19.0521201578        5.9593440285        5.6651199847
  H         3.5961594918       11.0563537571        2.1093568214
  H         2.0441612884       10.3016515269        2.2210411185
  H         3.1658937285        9.8436425994        3.4223948837
  C        14.2849056052        0.8194056484       -5.9779463067
  N        13.9632633610       -0.5027913240       -6.1205926447
  O        12.7553165581       -2.1241098195       -4.9688880022
  S        14.7844589234        1.6456440064       -7.4644205573
  C        14.1523689358       -1.2829365732       -7.3498955858
  H        14.3219691584       -2.3719101447       -7.1448582074
  H        15.0734476839       -0.9851708528       -7.8350539543
  C        12.9346562833       -1.1374901130       -8.2708771801
  H        13.3574954197       -0.8635633580       -9.2014675999
  H        12.2904090904       -0.2710432142       -8.0457650755
  H        12.3369946093       -2.0255524473       -8.4421573013
