352
 i =   122300, time =    61150.000, E =        98.2758421332
  H        10.5657025527        6.8888264708       32.1653247616
  C        11.4668535424        6.3672813347       32.4167993293
  H        12.1004199743        7.0152800873       32.9680947804
  C        12.0537890010        5.9671372246       31.0544746042
  C        11.0238311943        5.2147777133       33.3626349544
  C        10.8478997665        5.8494497647       30.0798919630
  H        12.6594511263        6.7893691389       30.7725287080
  H        12.7493866661        5.1397556798       31.1808800041
  H         9.9229902667        5.3133174799       33.3662388397
  H        11.2451975043        4.2622543632       32.9267397157
  H        11.4983109454        5.2572099900       34.4187911062
  C        11.4037085779        5.2128350901       28.7741658591
  H        10.3062389963        6.8226925064       29.9642449454
  H        10.1848430682        5.1070121194       30.5784474182
  C        10.7495275841        5.7039046206       27.5055690172
  H        12.4280162575        5.5524277075       28.7315475684
  H        11.4086183311        4.1111193562       28.7830836022
  C         9.4419268710        5.0110449083       27.1089696814
  H        11.4118049182        5.4894455046       26.6716034930
  H        10.5823127168        6.7562680072       27.5365683314
  C         8.5952432386        5.8830252833       26.2854890321
  H         9.8109531412        4.1449823544       26.5879298101
  H         8.9072779729        4.7059415589       27.9716361445
  C         7.4684958172        5.2023269799       25.5402892188
  H         8.2236327085        6.6557155519       26.9407351757
  H         9.2926236994        6.3055972857       25.5877242177
  C         7.0412865232        3.8372049626       26.1257158730
  C         7.8895034049        4.5438940305       24.3155843411
  C         6.3645406950        6.1186664683       25.3501371669
  C         7.3801156778        2.7365048715       25.3194086660
  C         6.3940474430        3.3739248024       27.2889662003
  C         7.8668226280        3.1658938201       24.1053080765
  C         8.3417374093        5.1721366483       23.1496671209
  H         6.6984834040        7.0384886521       24.8299028918
  H         6.0965724347        6.4820629744       26.4092355207
  C         5.0030311272        5.5260288028       24.7468275366
  S         6.9883376201        1.1551969847       26.0068722368
  C         6.4761005783        2.0475971515       27.4237096275
  H         6.1467810428        4.0412735086       28.1410110646
  C         8.3118944999        2.6265201567       22.9601405172
  H         8.2788899629        6.2846637007       23.2255877324
  C         8.7299466643        4.6171130953       21.9896374622
  H         5.1645648967        5.4449507619       23.6538337612
  H         4.9575104994        4.4724401197       24.9725984136
  C         3.6172620184        6.1853778013       24.9507856555
  C         6.0715468145        1.2786879754       28.6371555063
  C         8.7105535366        3.2844643389       21.8272207800
  H         8.4192761245        1.5500865014       22.8639534425
  C         9.0935909846        4.9807018936       20.7174243179
  H         2.9942580139        5.5589498856       24.3056370172
  H         3.6326268403        7.2149043340       24.7059762105
  C         3.0102571465        6.1881012771       26.3146615911
  C         6.0672091972       -0.1230099066       28.9251788520
  C         5.6193915606        2.1565694985       29.7987678041
  C         9.2094904855        2.6467727418       20.6335759257
  C         9.3751214613        3.9371889012       19.8800602467
  S         9.3347391759        6.5182194592       19.9474509656
  H         2.0827354001        6.7564620007       26.3585877930
  H         3.7209280975        6.8486538844       26.8780109460
  C         2.7558581951        4.8586045995       27.0695720335
  N         6.4662880929       -1.1406963168       28.0546881552
  C         5.7476842392       -0.6272784565       30.2016119035
  C         5.2576727292        1.6738186120       31.0033863194
  H         5.6356134197        3.2366134569       29.7057152596
  C         8.1903517096        1.8345219734       19.8197740266
  C        10.5138674143        1.8717846815       20.9966208015
  C         9.7139612763        4.3341528270       18.5303495174
  C         9.6773666935        5.7039996861       18.4902861650
  H         2.5600251051        4.1555646254       26.3580985226
  H         3.7208575242        4.6266496555       27.5949377460
  C         1.5711147080        4.8726931271       27.9724708894
  S         6.3578769306       -2.5936890455       28.8508309947
  N         5.7478450354       -2.0086554886       30.2449708343
  C         5.3207999413        0.1787790066       31.2892578961
  H         5.0406426616        2.3166924419       31.7838308527
  H         8.2943043610        0.8277365722       20.2791573883
  H         8.6711178357        1.6593419331       18.8306982581
  C         6.7572973053        2.3666128635       19.5146928776
  H        10.9343970031        1.3426758825       20.0583400960
  H        10.2806487858        0.9806227606       21.6349441834
  C        11.7209833735        2.6924263063       21.4482103622
  H         9.8496560891        3.6516829362       17.7408710251
  C        10.0444518818        6.4628182745       17.2576141558
  H         1.3943150724        3.8271009987       28.0597418581
  H         0.6829314081        5.3367915567       27.5774812959
  C         1.8789931595        5.5087075429       29.2899017312
  C         5.0369256657       -0.3683701352       32.5989803200
  H         6.8045547838        3.2399292245       18.9168707589
  H         6.2473829202        2.6496164235       20.4059448946
  C         5.9647654172        1.3175384394       18.7809536498
  H        11.5032013901        3.4382094532       22.1936187163
  H        12.0140296477        3.4244023819       20.6894412361
  C        12.9421063345        1.7493996128       21.8202829740
  C         9.9633049131        7.8582214147       17.1239372029
  C        10.1052422277        5.7699417949       15.9677442510
  H         2.1954577006        6.5418882921       29.0676699594
  H         0.9538447555        5.5770951339       29.7869649847
  C         2.8742857486        4.7914304807       30.2506000488
  H         5.5011902353       -1.3270654818       32.6431384558
  C         4.6212760393        0.1354525685       33.8351171915
  H         5.8835010847        0.5572378514       19.5064567968
  H         6.4088985172        0.9592185239       17.8740859567
  C         4.5275977693        1.7538579377       18.3940357331
  H        12.7499141379        1.0743466118       22.6224822185
  H        13.2865305657        1.0449824683       20.9898804433
  C        14.1491713169        2.5892920200       22.4341214170
  N         9.6261516278        8.7733510508       18.1756568227
  C        10.1763175133        8.5630713141       15.9318458686
  C        10.2584646510        6.4665829506       14.7728229844
  H        10.0789011185        4.7315672344       15.9266992276
  H         2.4811029347        4.7985248941       31.2584456907
  H         2.9319732388        3.7372626351       29.9532006103
  H         3.7944340063        5.2718018162       30.2456549952
  S         4.2631682806        1.7750880584       34.3700859177
  C         4.4375682717       -0.8784246616       34.9055258785
  H         4.1612313274        2.3571803436       19.2533515557
  H         4.5015099664        2.3279813535       17.4714082631
  C         3.5850112583        0.5338555594       18.2940170732
  H        14.1845419294        2.5822360578       23.5249586387
  H        14.0111814452        3.6646303406       22.1047815474
  C        15.4316020978        2.1189323701       21.8222204967
  S         9.3798851089       10.2259814110       17.4646712635
  N         9.9682710393        9.9491790544       15.9722662008
  C        10.4639280874        7.9263042775       14.6716948858
  H        10.3964228479        5.8590727414       13.9000462274
  C         4.0576315757        1.1298090784       35.9961405734
  N         4.0282763732       -0.2179264153       36.0549609254
  O         4.5942283580       -2.1222998213       34.8073792649
  H         2.6742561251        0.9160145327       18.6648237263
  H         3.8093307614       -0.3218813925       18.9317766430
  C         3.2402328911        0.1758125941       16.8440970352
  H        15.3653179774        1.0391674017       21.7357894445
  H        15.3322148622        2.4420218636       20.8289752442
  C        16.7349600083        2.8400227878       22.2340021294
  C        10.7824138878        8.6537026020       13.5367133415
  S         3.6391340721        2.0662250372       37.4726581221
  C         3.9889923119       -0.9756188637       37.3623335289
  H         2.8341320598        0.9855616867       16.2010030092
  H         4.2130631783       -0.0713622215       16.4071178493
  C         2.3537253208       -1.0991681786       16.7260410540
  H        16.4678328153        3.8880281448       22.4586358990
  H        17.4057596567        3.0228449140       21.2978265435
  C        17.5405976340        2.1308554036       23.3626640762
  H        10.5798770279        9.7409901089       13.4498179220
  C        11.2944192789        8.2643943604       12.3103773432
  H         3.3450644310       -0.5293974550       38.0755425485
  H         3.5690972199       -1.9969838044       37.2687617205
  C         5.3700700999       -1.0727229864       37.9760795344
  H         1.9278960237       -1.1994421219       15.7526452948
  H         1.4875313947       -0.8695332837       17.2835360217
  C         3.0154088868       -2.4184704162       17.2095040202
  H        17.5256792414        1.0851397612       23.2235868599
  H        18.5443432904        2.5093721716       23.2736956295
  C        16.9247801514        2.3796847575       24.7232393170
  S        11.8981387394        6.7547804733       11.8291404623
  C        11.3927260714        9.2257243451       11.1851072121
  H         5.8220717409       -1.8883755749       37.5000824506
  H         5.9226759198       -0.1394321434       37.8614939817
  H         5.2257553027       -1.1730129799       39.0415879522
  H         3.7886912979       -2.1705775371       17.9095443416
  H         3.3642848854       -2.9368085303       16.2616533737
  H         2.3515440384       -3.1339952239       17.7495957822
  H        16.2113047533        1.5626112567       24.8038709655
  H        16.4386769286        3.3933175325       24.7644692537
  H        17.6814981998        2.3512878395       25.4468404670
  C        12.0307989639        7.3921686768       10.1777402828
  N        11.8362515348        8.6778553253       10.0507447097
  O        11.1843851230       10.4044974283       11.3578181561
  S        12.6131356883        6.3650369484        8.8199233574
  C        11.8270038850        9.4822229075        8.8289637182
  H        12.0617593346       10.5706054225        9.0243386918
  H        12.7035715591        9.2872171894        8.1775764029
  C        10.4637403773        9.4649227378        8.1849702653
  H        10.4992650072        9.0753721940        7.1533749277
  H         9.7621404776        8.7909301024        8.6022447941
  H         9.8487819144       10.3937990999        8.2323225736
  H         3.8787600570        3.5535242233       11.9375592069
  C         3.1603899324        2.8218781385       12.1909217215
  H         2.2593005442        3.3507575501       12.6460757152
  C         2.8128655338        1.9524889818       10.9512676147
  C         3.9466586617        2.0168745842       13.1845941123
  C         3.5961022276        2.3178134740        9.6826584926
  H         1.6814696976        2.0695627305       10.8398113703
  H         2.8131952913        0.8688207608       11.1125662370
  H         3.4569744482        1.0909846786       13.2050696228
  H         3.8796221651        2.5099308626       14.2159773890
  H         4.9982613721        1.8525780843       12.9314110716
  C         4.5250265862        1.1616865075        9.3557962561
  H         2.8822129202        2.4805625342        8.8824354034
  H         4.1650389393        3.2157948863        9.7077847076
  C         5.5120727698        1.6882187120        8.2812300317
  H         3.9626825437        0.2703959443        9.0799595513
  H         5.1160647046        1.0182646061       10.2444522273
  C         6.6324078337        2.6760374261        8.7516417333
  H         5.0523001093        2.3212754023        7.4329627289
  H         5.9615179791        0.8614645051        7.7446740312
  C         7.8957903340        1.8710552088        9.0336892003
  H         6.8004995909        3.2481211345        7.8729659735
  H         6.3717106916        3.2772597732        9.6505155900
  C         9.1618926290        2.7836924847        9.1105068220
  H         8.0283599141        1.0705191661        8.3890837264
  H         7.8894491129        1.3118038680        9.9390436718
  C         8.7501559669        4.0555307535        9.8480116122
  C         9.5607430132        3.4735990313        7.8847662213
  C        10.3756013721        1.9937870637        9.6621247199
  C         8.8005311482        5.1724632472        9.0149408868
  C         8.4021838453        4.4719588348       11.1393788114
  C         9.3563978064        4.8252337983        7.7687211778
  C         9.9248507907        2.8457671072        6.7302526415
  H        10.0365572629        1.5738118622       10.6369023124
  H        10.5504463132        1.1030567817        9.0530635048
  C        11.6131480523        2.8355185167        9.8427380245
  S         8.3631719726        6.6452453562        9.8182352918
  C         8.0561305019        5.7822876281       11.2513956150
  H         8.3725680507        3.7443149493       11.9124521581
  C         9.7245592350        5.3631034611        6.5886569961
  H         9.7615452354        1.7733311126        6.7093552858
  C        10.2920409198        3.4737843054        5.5846504801
  H        11.1377656030        3.7815234553       10.0060069139
  H        12.1719286178        2.9155741237        8.9288830312
  C        12.5488864728        2.4846230000       11.0267028551
  C         7.4675299849        6.4934852618       12.4557680924
  C        10.1983358921        4.8058558487        5.4340435625
  H         9.5864319271        6.4546867995        6.4584125619
  C        10.7670480828        3.0628174025        4.3253528727
  H        13.3115551376        3.2412931947       11.0440583993
  H        12.9407282554        1.4548091968       10.9764541778
  C        11.8478416270        2.6112960401       12.3314997096
  C         7.5233812931        7.8832071330       12.7106809372
  C         7.0829734690        5.6061551528       13.5729201530
  C        10.6645669767        5.5078234871        4.1577735947
  C        10.9951937846        4.1628540049        3.5095685969
  S        11.0452125743        1.5478994674        3.5611428932
  H        11.2648464015        3.5024260116       12.1899810829
  H        11.0910508750        1.7818727851       12.3711479949
  C        12.6942957741        2.5864040117       13.6126046358
  N         7.8970278911        8.8668666689       11.7809490741
  C         7.2466592245        8.4097393093       13.9384404668
  C         6.6947676431        6.1622785839       14.7828629493
  H         6.8966026554        4.5293940286       13.4123252374
  C        11.9927209840        6.3119325093        4.4555202806
  C         9.5945890330        6.3947957178        3.4607132480
  C        11.4873995755        3.7363281043        2.3061567133
  C        11.5354877934        2.3615241017        2.1399080576
  H        13.1938622703        3.6001522655       13.6650359413
  H        13.4463162058        1.8603536661       13.4926297204
  C        11.9213769024        2.3677255370       14.9325398661
  S         7.9481141909       10.3392063811       12.5416079029
  N         7.4571963130        9.7915419012       14.0308857997
  C         6.8364135403        7.5945796533       15.0141616543
  H         6.2418812125        5.5229335362       15.5575635359
  H        11.7756371965        6.8988356483        5.2964279229
  H        12.2008793153        6.9996094847        3.5812003172
  C        13.2624608700        5.3619646732        4.8090824291
  H         9.5063966509        7.4463118943        3.8105862280
  H        10.0386446843        6.5627047933        2.4922069080
  C         8.2348037542        5.7384839571        3.2449121056
  H        11.7422629955        4.4306800789        1.5521034234
  C        11.8420488995        1.5996568195        0.8409954339
  H        11.3324456485        3.2810845405       15.0628692194
  H        11.3985212243        1.4592906516       14.8115565158
  C        12.9038181070        2.1547909278       16.1089788673
  C         6.6116158805        8.2024705374       16.2967580353
  H        13.0418451325        4.6774196003        5.6341094178
  H        13.5419424831        4.6673255397        4.0667050656
  C        14.5283194008        6.1678574672        5.0441589508
  H         7.8920054070        5.2522085871        4.1213038767
  H         8.2355359160        4.9536596259        2.4895174107
  C         7.0321260665        6.6345132122        2.7679988310
  C        11.7891159539        0.2134143288        0.6511746321
  C        12.1788753365        2.4194178463       -0.3968253414
  H        13.7970571461        2.7351922327       15.9838972746
  H        13.3108748285        1.1197581156       16.2208658330
  C        12.2610951553        2.4900360793       17.5048824484
  H         6.7281412334        9.2273368628       16.2825687207
  C         6.4644565662        7.7135368583       17.5716901791
  H        14.2646982190        6.9403401216        5.7536451342
  H        14.7768647165        6.6265177401        4.0620283201
  C        15.6640650978        5.3112220558        5.6966967180
  H         7.2532538102        7.6430460486        3.3229330868
  H         6.9515347085        6.8311294472        1.6212985508
  C         5.5941765963        6.1223404156        3.1945499284
  N        11.5982015140       -0.6374288823        1.6726707890
  C        12.1425326558       -0.3681723185       -0.5788297511
  C        12.4552476762        1.7812225807       -1.5979448156
  H        12.3222615237        3.4376641883       -0.2510330478
  H        11.2999934524        1.9610055749       17.5462607460
  H        12.0709057643        3.5550343805       17.4789700272
  H        12.8276549247        2.1381966059       18.3149511768
  S         6.1491956088        6.0703433406       18.1140609752
  C         6.4901828607        8.7514398985       18.6684914626
  H        15.2963472318        4.3923408612        6.1342981824
  H        16.3539312190        4.9577292404        4.9091413579
  C        16.4440540740        6.0311507014        6.7290250704
  H         5.2614859421        6.8322892174        3.9145289862
  H         5.6477223996        5.1213941561        3.6267359709
  C         4.5262651900        6.2445028445        2.0980941125
  S        11.6090240611       -2.0556703611        1.0600331188
  N        11.9872295558       -1.7147959252       -0.4772741298
  C        12.4469755977        0.3160660680       -1.7591865380
  H        12.7816739507        2.3624049322       -2.4633767184
  C         6.0046510241        6.8256339005       19.6943353482
  N         6.0984558024        8.1214692766       19.7906992844
  O         6.5318681702        9.9937099759       18.5401370318
  H        16.9228549408        6.8393209355        6.1880492230
  H        15.7577969324        6.4074229453        7.5104060619
  C        17.4217327535        5.0668115281        7.1805832374
  H         4.9754817814        6.3469742567        1.1072647252
  H         3.8672351281        5.3211850998        1.9935891232
  C         3.7295695247        7.5389300439        2.2811233714
  C        12.7902836970       -0.4286934729       -2.8912119869
  S         5.5211511500        5.9041981066       21.1023902020
  C         5.9484800117        8.8642991816       21.0341104350
  H        16.9874045169        4.5478750970        8.0319428945
  H        17.6691476631        4.2813344806        6.4524785741
  C        18.6748333455        5.8055732002        7.7058576560
  H         2.9879793685        7.3373761749        3.1252730424
  H         3.0296739935        7.6396594882        1.4748398766
  C         4.5065401777        8.8488718702        2.3793152485
  H        12.8804288777       -1.4875723652       -2.6869814847
  C        13.2809444319        0.0609560865       -4.1094750937
  H         5.3693706895        8.3409879421       21.8140651026
  H         5.4551815816        9.8472353520       20.7890493825
  C         7.2460751662        9.2184712334       21.7862227305
  H        19.0293462639        5.2114863487        8.5662958248
  H        18.4091931394        6.7854823782        8.0482133598
  C        19.7081175654        5.9079477258        6.5560354488
  H         4.5408328288        9.3171955918        3.3081258240
  H         5.4646908167        8.7389139719        2.0149770974
  C         3.8574815474        9.8378810650        1.4621007653
  S        13.6679214132        1.6741987499       -4.6163897969
  C        13.3916084634       -0.8800381694       -5.2548773001
  H         8.0723234052        9.3655372896       21.1331650129
  H         7.4790173277        8.3414236810       22.3216121000
  H         7.0748583843       10.1024564178       22.4541419773
  H        19.4163524163        6.5846011686        5.7810341045
  H        20.5951926530        6.2961111911        7.0816693130
  H        19.9057019718        4.9401435060        6.0425207515
  H         3.0825838349       10.4256769928        1.9620310352
  H         4.5877776104       10.6384849104        1.2195703681
  H         3.4951935022        9.4671936251        0.4769717621
  C        14.1717093208        1.0276568386       -6.1582573390
  N        14.0064794965       -0.2636189424       -6.3096412441
  O        13.2586093131       -2.1365107259       -5.1311090444
  S        14.6763404399        2.0253926630       -7.5153987243
  C        14.3435926894       -1.0366065584       -7.4865752518
  H        14.7739479401       -1.9815534872       -7.1858055089
  H        15.1770241551       -0.4868610416       -8.0108563789
  C        13.2139166747       -1.0959301948       -8.4278618650
  H        13.5944712849       -1.4799088547       -9.3716326962
  H        13.0317318771       -0.0606961474       -8.6404550093
  H        12.2806946068       -1.6276499698       -8.1930723535
