352
 i =    31400, time =    15700.000, E =       100.1709563308
  H         9.8381253482        4.8949030811       32.1056946483
  C        10.3141203742        5.7119101956       32.5631188925
  H         9.5426059594        6.1204734720       33.1803461238
  C        10.7496074303        6.6203483221       31.4009984345
  C        11.4546147321        5.3765631563       33.5799061108
  C        11.0352776257        5.9479270768       29.9672773232
  H         9.9477132626        7.4363464085       31.2987693462
  H        11.5982371897        7.2117775952       31.7416454325
  H        11.1241548459        4.7328724959       34.4988865313
  H        12.2737805230        4.7849379777       33.2538273300
  H        11.7546936646        6.2503357103       34.1541618001
  C         9.9012823285        5.6825002518       29.0384547506
  H        11.4669712790        5.0068736004       30.1794145861
  H        11.7792114798        6.4780696351       29.4145682453
  C        10.3210630956        5.5245395047       27.5754843672
  H         9.5118889320        4.7000294547       29.3829180919
  H         9.1056973228        6.4491945583       29.1477686783
  C         9.3028412036        4.8855544221       26.6840536032
  H        11.1694840261        4.8651344880       27.6879218584
  H        10.5640040383        6.5104103480       27.2486701222
  C         8.0921745526        5.7128063113       26.3924133866
  H         9.8322151636        4.5745617821       25.7626384968
  H         8.9568056886        3.9171538409       27.0070579621
  C         6.9514600311        5.1038255457       25.6238947860
  H         7.7525633144        5.8563153434       27.3835445738
  H         8.3729377637        6.7083007275       25.9817803841
  C         6.4404152091        3.7704858231       26.1974858438
  C         7.4346702382        4.4195135687       24.3462204049
  C         5.8530157363        6.1335339751       25.3431561630
  C         6.7963705248        2.6389831558       25.4231719199
  C         5.8054412704        3.4420914649       27.3690270992
  C         7.3242181656        3.0487967872       24.2100716400
  C         7.9861432001        4.9629956975       23.1564699445
  H         6.2662654301        6.9972252950       24.8333956298
  H         5.5009153225        6.3681591309       26.3700437888
  C         4.7293010481        5.5795609608       24.5079537905
  S         6.4043337723        1.2137819691       26.2041152247
  C         5.6456580579        2.0490237265       27.5348608716
  H         5.6037261023        4.1717225876       28.1174204881
  C         7.7941715032        2.4216057022       23.0743239994
  H         7.8826060941        6.0303715997       23.1213783798
  C         8.3625110124        4.3665786833       21.9936312858
  H         4.9423313174        5.2845135759       23.4556553512
  H         4.3148168050        4.6768142053       24.9730089137
  C         3.5821733171        6.6151678664       24.4837585181
  C         5.1997578830        1.3407418596       28.7914572294
  C         8.2780396855        2.9856208010       21.9018503743
  H         7.7302208850        1.3524993166       23.0994119767
  C         8.8091592347        4.7702205608       20.7874256551
  H         2.8370987575        6.3488483643       23.8075354006
  H         3.9517221776        7.6554744962       24.2402771098
  C         2.8538087943        6.6429887119       25.8435742691
  C         5.4307567247       -0.0707329008       29.0889693940
  C         4.8266586519        2.1399928041       30.0041540407
  C         8.6997883945        2.3400795683       20.6742734466
  C         9.0616967024        3.6721910225       19.9691190656
  S         9.1830142442        6.2834437447       20.0297271987
  H         2.1161938306        7.4307930127       25.8124519738
  H         3.5463285944        6.8683274110       26.6394326306
  C         2.1812611350        5.3243837129       26.2293573856
  N         5.7894440161       -1.0220951555       28.1431321389
  C         5.3327900974       -0.5718647230       30.3934086734
  C         4.6198348352        1.6227633832       31.2780669211
  H         4.6145403762        3.1353457204       29.8686097536
  C         7.5613906524        1.5955979246       19.9158401760
  C         9.9371904826        1.4116103139       20.8869471451
  C         9.4878202820        4.0532135302       18.6840332025
  C         9.5781819384        5.4219399266       18.5194496987
  H         1.5384726061        4.9830017666       25.3864964342
  H         2.9340259657        4.6653303143       26.5951626781
  C         1.3406196626        5.5965035077       27.4671491985
  S         5.9497194703       -2.4588388938       28.9123464141
  N         5.7589707493       -1.9197752674       30.4239281251
  C         4.9492931283        0.1369998922       31.5264789461
  H         4.1525834967        2.1847185982       32.0493835607
  H         7.0561474976        1.0131342648       20.6659027573
  H         8.0290781199        0.9456277626       19.2293077171
  C         6.4696718447        2.3374712543       19.1473318479
  H        10.2117901696        0.8839786456       19.9894836292
  H         9.7814089849        0.6148278364       21.6188497400
  C        11.1977455270        2.1351691972       21.3431964489
  H         9.7344651094        3.3339937802       17.9929983496
  C         9.9300156959        6.2254774917       17.3441653595
  H         0.4230084254        5.0207864006       27.4470010452
  H         1.0888522083        6.6197952336       27.5433460891
  C         2.0635843786        5.4289223861       28.8124565053
  C         4.9053380407       -0.5742141970       32.8029754838
  H         6.8903362954        2.9550442133       18.3532556541
  H         5.9690688506        2.9716303265       19.8304891132
  C         5.4658768042        1.4554790640       18.4196386768
  H        10.9631086128        2.7402196945       22.2437176205
  H        11.5372417713        2.8695887211       20.6156776241
  C        12.3428490832        1.1724402281       21.7563733700
  C        10.0178817416        7.5985130507       17.2161505932
  C        10.2534405612        5.4744607367       16.0963130067
  H         2.5159206016        4.4080148847       28.7336324484
  H         2.9300093350        6.0381720090       28.9156790665
  C         1.1473982853        5.3677823653       29.9747824248
  H         5.1184761346       -1.6531598059       32.8442035505
  C         4.5757483996       -0.0363871043       34.0492426418
  H         5.3759921512        0.5394414741       19.0211898089
  H         6.0825714239        1.0446150936       17.5345775992
  C         4.1452282312        2.1580885493       18.2114844481
  H        12.0441125351        0.6557961721       22.6480086232
  H        12.5030455827        0.4611133992       20.9917502104
  C        13.6831150956        1.8554347316       21.9904028523
  N         9.6915682942        8.5220003946       18.1490606607
  C        10.4157720575        8.2343682888       16.0518203733
  C        10.6403549602        6.1248311905       14.9306020218
  H        10.1719787513        4.4049464157       16.0829843784
  H         0.3284033802        4.6327979894       29.8578060131
  H         1.7830987792        5.1075480729       30.8087582797
  H         0.5923649873        6.2495756007       30.1044210573
  S         4.2291357620        1.5859734829       34.5375480245
  C         4.5053684648       -0.9851433092       35.2057930315
  H         3.9524384260        2.9383343922       18.9448596836
  H         4.0709277989        2.8422860430       17.3886036312
  C         2.9764242366        1.2108037382       18.3473862062
  H        13.7458090651        2.6742290065       21.3091536225
  H        14.5011193855        1.0948556813       21.7794976279
  C        13.6854081117        2.5327133689       23.4399369101
  S         9.7813102956       10.0499039342       17.6497635255
  N        10.3670956160        9.6660131912       16.1559155202
  C        10.7795132206        7.5869405487       14.8601528712
  H        10.6082088260        5.5095530823       14.0062919673
  C         3.7677871756        0.8988375319       36.1329191926
  N         4.0032341789       -0.4116831349       36.2565035758
  O         4.6643094399       -2.2388141823       35.1306092860
  H         1.9634315914        1.6668624155       18.2704425215
  H         2.9386158909        0.7674063265       19.3775596586
  C         3.0203509190        0.0440050478       17.2882033010
  H        12.9675702690        3.3678003843       23.4520433668
  H        13.5072116115        1.8260687229       24.2280754453
  C        15.0322874382        3.2642720799       23.5636034667
  C        11.2500231707        8.4087352200       13.7502008092
  S         3.2584686651        1.8233456438       37.5410071914
  C         3.9727107274       -1.0414397618       37.5541177267
  H         2.7513820473        0.4110225568       16.2849358737
  H         4.0461254114       -0.2912902267       17.0698180416
  C         2.1731739170       -1.1552338973       17.6989028549
  H        14.9956045347        3.8704874742       24.4518695592
  H        15.1610190739        3.8834602985       22.6395523347
  C        16.1791399699        2.2740338271       23.7438818541
  H        11.0911525871        9.4675004891       13.9019498558
  C        11.7428493177        8.0745419034       12.5570402965
  H         3.1679870420       -0.6890093152       38.2388225449
  H         3.7690337095       -2.1498877149       37.3559734895
  C         5.3071103027       -0.8925799971       38.2797802725
  H         1.0868044711       -0.9078819658       17.9228370688
  H         2.5613552961       -1.5294589187       18.6091725919
  C         2.1217036562       -2.2323328741       16.6216059797
  H        16.6050031344        2.3105710401       24.7131833299
  H        15.9432330261        1.2619630455       23.5300118035
  C        17.3553329959        2.4881926768       22.8354280424
  S        12.3642783642        6.5268102750       12.0873507812
  C        11.7941180355        9.1253090256       11.4935020869
  H         5.2349819536       -0.1052709211       39.0817532829
  H         5.6066245391       -1.8437984089       38.8055704710
  H         6.1050733886       -0.5551244348       37.6245129263
  H         1.4154347343       -1.8779713361       15.8321082570
  H         1.6415788666       -3.2003717759       16.8923785432
  H         3.0857819435       -2.4822180020       16.1549234167
  H        18.3097420145        2.1162228871       23.2600028161
  H        17.4728198984        3.5133649541       22.5432086597
  H        17.3013531331        1.8237706609       21.9564094131
  C        12.7014867769        7.2960053826       10.5326189730
  N        12.4491200688        8.6234564133       10.4422905575
  O        11.2358677173       10.1884319746       11.6071513761
  S        13.2808320873        6.5088450437        9.0892871261
  C        12.5280186933        9.4352354823        9.2449174960
  H        12.6596991611       10.4782842535        9.5515808535
  H        13.3205524321        9.0176136139        8.5885558012
  C        11.1933031945        9.3767155456        8.4749914412
  H        11.0561498371       10.2098019986        7.8170389201
  H        11.2075471354        8.4808843558        7.7776503042
  H        10.3366924936        9.2787199138        9.0844462439
  H         3.3431174767        1.0632305416       14.0562248379
  C         3.9770807459        1.7693458935       13.5274454569
  H         4.8359531839        1.1954764199       13.3065055484
  C         3.4151614044        2.4230603009       12.2560432724
  C         4.3317140692        2.9062450910       14.5147850009
  C         4.4279471246        2.6920164369       11.1476199808
  H         3.0973061084        3.3991016038       12.5464915076
  H         2.5232721632        2.0099641571       11.8899613171
  H         3.4865190521        3.5348136127       14.8031496917
  H         4.9561458790        3.6835968498       14.1524504367
  H         4.6661246946        2.3772663937       15.4413249305
  C         4.9567416579        1.5059217952       10.4479276178
  H         4.0229352363        3.4166203170       10.3878397610
  H         5.2220121530        3.3322576268       11.5380022567
  C         5.6586051240        1.6436588681        9.0638055867
  H         4.1490170221        0.7949428579       10.2589107826
  H         5.6954906421        1.1039579511       11.1177726501
  C         6.8426784272        2.5419828264        8.9797549671
  H         4.9086675907        2.2123426187        8.5360665207
  H         5.7712974120        0.7070717567        8.5254988677
  C         8.1823868174        1.8680930654        9.4125527210
  H         6.8907453447        2.9780868064        7.9351661651
  H         6.6010489254        3.3985803474        9.5797051387
  C         9.3787842276        2.8734138528        9.4564484833
  H         8.4355313843        1.0163023279        8.8070367635
  H         8.0814658472        1.5186885972       10.3958802236
  C         9.0442835393        4.2477753799       10.0912947720
  C         9.6621758182        3.5597359580        8.1461409177
  C        10.6631342791        2.1258193703        9.9500331908
  C         9.2377083641        5.3736723671        9.2727324113
  C         8.5605263776        4.5965309212       11.3108631427
  C         9.7021429584        4.9020235528        8.0335874066
  C        10.0650769362        2.8579607092        7.0341268594
  H        10.4347860800        1.5914012869       10.8560568401
  H        10.8993515311        1.4421697671        9.1978991943
  C        11.8506236368        3.0687863121       10.4323987095
  S         8.5078002348        6.8306952615        9.8227919547
  C         8.2628141201        5.9729452962       11.3087297661
  H         8.3482875271        3.8679529775       12.0706357925
  C         9.9114500453        5.3994650535        6.7908778131
  H        10.1222448976        1.7947683893        7.1463995943
  C        10.3634767333        3.3247697185        5.8031405186
  H        11.4858780303        4.0564592249       10.9211318632
  H        12.4317669330        3.4466043004        9.6197160122
  C        12.8510948218        2.5116510915       11.5284911243
  C         7.5184906844        6.6048095057       12.4875617595
  C        10.3035107724        4.6650630447        5.6469832545
  H         9.8678802214        6.4385341800        6.5125762383
  C        10.8260660164        2.8785851936        4.5788885878
  H        13.8600646564        2.9977260188       11.4706385270
  H        13.2021360189        1.5505718602       11.3229222159
  C        12.1540957846        2.4267690807       12.8832878001
  C         7.7032258329        7.9681462332       12.8557319837
  C         7.0821891265        5.6950235468       13.6048300115
  C        10.6702340914        5.2666487345        4.3557241180
  C        10.8201926276        3.9312059706        3.7228803635
  S        11.1643441667        1.3341448915        3.8782083673
  H        11.7602156261        3.4643178881       13.1064701072
  H        11.3247805606        1.6971034963       12.8332932136
  C        13.0700519547        1.8965044809       14.0950209911
  N         8.2229228146        8.8955389949       11.9919654658
  C         7.4019954780        8.4639686389       14.1083217581
  C         6.8086200962        6.2382611283       14.9080421911
  H         6.9018440810        4.6167297430       13.3958239944
  C        11.9810599560        6.0090434060        4.3893069814
  C         9.4786363879        6.0910395581        3.6443684590
  C        11.1385315337        3.4485312490        2.4485864104
  C        11.2970623360        2.0849536338        2.3901631519
  H        13.3553562207        2.7970377386       14.6761958796
  H        13.8655796106        1.4378121433       13.6004790428
  C        12.4577425021        0.9049036863       15.1243334096
  S         8.3323994800       10.2488780465       12.8202924242
  N         7.5258880312        9.8709356367       14.1577918966
  C         7.0531799141        7.6700801359       15.2362720836
  H         6.5204040501        5.5350905813       15.6614401929
  H        11.9042647586        6.9220939154        4.9356059228
  H        12.2382933982        6.2216165643        3.3825090054
  C        13.1122694226        5.2291564175        4.9762859239
  H         9.2496282879        6.8778343189        4.3342114160
  H         9.7656671721        6.5541470856        2.7100187419
  C         8.2259098362        5.2822295954        3.3088423061
  H        11.0954165717        4.1493029645        1.6221046031
  C        11.5945758129        1.3321921395        1.0873392776
  H        11.7895714050        0.1966948906       14.6942007777
  H        13.2686605582        0.4975007731       15.6372029235
  C        11.7329327426        1.7031647686       16.2032377969
  C         6.8103971465        8.3053045427       16.4841101230
  H        12.8006021471        4.7567608834        5.9436695774
  H        13.3946688695        4.4645756809        4.3281377218
  C        14.2897886893        6.1501709509        5.1897981478
  H         7.6899435461        5.0655576955        4.2197106800
  H         8.5290519529        4.2072614350        2.9965161393
  C         7.2976770979        5.8952550855        2.2558317710
  C        11.6601172673       -0.0346429881        0.8584825093
  C        11.9184273913        2.1245647342       -0.1336607302
  H        10.8336005475        1.2107101042       16.5880553161
  H        11.2371877549        2.5849677119       15.7279042157
  C        12.6146729484        2.0123407245       17.3586843111
  H         6.9282813814        9.3673504556       16.4365461707
  C         6.4739839114        7.8366046096       17.7027044688
  H        13.9848259650        7.0186943737        5.7417699512
  H        14.6135880706        6.5726515207        4.2362129412
  C        15.3338955618        5.2512058902        5.9361382213
  H         7.9040998715        6.5300364151        1.6710511182
  H         7.0018295866        5.0382947662        1.6287784940
  C         6.0753726805        6.6020466249        2.9664129219
  N        11.5513433027       -0.9602957421        1.8641287454
  C        12.0483230902       -0.6820293803       -0.3304055094
  C        12.2285061792        1.4995343461       -1.3269950989
  H        11.8800922679        3.1743292418       -0.0090145343
  H        12.0655799434        2.5827094096       17.9001636082
  H        13.5029801691        2.6517630244       17.0298001648
  H        12.8351082912        1.0969601405       17.9559648417
  S         6.1662195680        6.2112226467       18.1246966533
  C         6.1991735967        8.7693263181       18.8166489932
  H        14.7515533521        4.6548591846        6.6052585806
  H        15.8616946085        4.5830015654        5.2047083378
  C        16.4224663289        5.9712848602        6.7634408522
  H         6.4663952568        7.4053493382        3.5500052993
  H         5.5962464482        5.8573219211        3.5987592591
  C         4.9506030532        7.0088000569        1.9246004987
  S        11.6960970578       -2.4829044310        1.2158320079
  N        12.0696181001       -2.0563889573       -0.3085503286
  C        12.3261690828        0.0526802809       -1.5175968085
  H        12.4150454037        2.1712987111       -2.1349654818
  C         5.7189565530        6.7503561146       19.6637291196
  N         5.9489289424        8.0436568655       19.9059138836
  O         6.4813157253        9.9376444549       18.8780843713
  H        16.8213574669        6.8557016785        6.2586628598
  H        15.9752097824        6.4062368651        7.6703850579
  C        17.4659308844        4.9544709284        7.2705846147
  H         5.5397895775        7.6505617951        1.3041209606
  H         4.6311679072        6.1788255425        1.2934460582
  C         3.7451226608        7.7789060587        2.4763370759
  C        12.7400466909       -0.6145472323       -2.7407422811
  S         5.4844110404        5.6663690893       20.9830814468
  C         5.9391606077        8.7539899817       21.2054163875
  H        17.1850190682        4.7685269250        8.3023881061
  H        17.3627991723        3.9819638343        6.8137271508
  C        18.8405850095        5.5356495378        7.2272000706
  H         3.6067270961        7.6575322961        3.5109455715
  H         2.8845201998        7.3462163934        2.0162945308
  C         3.8535286707        9.3310597926        2.2565145444
  H        12.4084582121       -1.6472211187       -2.6750651501
  C        13.3678223241       -0.2118736409       -3.8583606150
  H         5.8774569908        8.0328968779       21.9446289066
  H         5.1292902655        9.4237129731       21.1561832368
  C         7.2152883831        9.5715117931       21.4776473640
  H        19.4096027875        5.0499051268        7.9270133504
  H        18.8293198303        6.5355216379        7.5264266750
  C        19.5192119150        5.4386632049        5.8433083416
  H         3.0572165155        9.8332621792        2.6516360831
  H         4.8598994911        9.5959210471        2.6293207781
  C         3.7280193023        9.7055279287        0.7676224246
  S        13.8066075211        1.3550359007       -4.1684740418
  C        13.6794296704       -1.2167416339       -4.9530330755
  H         7.6758165194        9.2727672255       22.4036875159
  H         7.1048374179       10.6252705321       21.5121011200
  H         7.9938994643        9.3296857493       20.7282199906
  H        20.5695428792        5.4100171107        5.9405260527
  H        19.0955527998        4.7686546427        5.1378994826
  H        19.3070134966        6.4242101464        5.2893654650
  H         3.8261950955       10.7230170633        0.5541382842
  H         4.4896092582        9.1098781660        0.2177163744
  H         2.8364899762        9.2175708253        0.3778351375
  C        14.2907767179        0.7495497226       -5.7382594604
  N        14.1816729000       -0.5341181887       -6.0033467956
  O        13.4228768266       -2.3733862855       -4.8512192843
  S        15.1094232285        1.8145108696       -6.8881387955
  C        14.3639043395       -1.1556804891       -7.3405942237
  H        14.8295057979       -2.0781439296       -7.1571719882
  H        15.1729207322       -0.6336455522       -7.9385820497
  C        13.0665837838       -1.0710651619       -8.1207912296
  H        12.1885537810       -1.2123990710       -7.4981104945
  H        12.9791584616       -1.9121522163       -8.7644184937
  H        13.1669982975       -0.1528980424       -8.6037172102
