352
 i =    39700, time =    19850.000, E =        99.2609831628
  H        10.1746197585        4.6732680306       31.6203913678
  C        10.6578712692        5.5402074225       31.9102734429
  H         9.9955126567        6.3229818508       31.5404741765
  C        11.9922284170        5.6034917391       31.1688990652
  C        10.9707412398        5.3191815467       33.3642191013
  C        11.8928125063        5.2484281833       29.6348863839
  H        12.5379767006        6.5333888910       31.3441165514
  H        12.6652959403        4.8262161466       31.4762537291
  H        11.5829228978        6.1681213397       33.7219244617
  H        10.0563539297        5.4223616123       33.9058264345
  H        11.6119952729        4.4241384170       33.5296255712
  C        10.7682570224        5.7427900034       28.8725807394
  H        11.9903242633        4.1754527716       29.4027008715
  H        12.7845771678        5.6477932348       29.3253201339
  C        10.8512568879        5.7500403637       27.3079094859
  H         9.9826719594        5.1788396213       29.2768828086
  H        10.6801369890        6.7827749506       29.1537717731
  C         9.6543117470        5.0619717378       26.6645199875
  H        11.7944783957        5.2991784346       26.8226137943
  H        10.9281714131        6.7783860312       26.9901544757
  C         8.2812282466        5.8025941909       26.5699460368
  H        10.0262112147        4.7791072412       25.6550436282
  H         9.3567517710        4.1642290712       27.2394033006
  C         7.1939732784        5.0513115524       25.7224672900
  H         7.8224096672        6.1192250221       27.5429689458
  H         8.3310768942        6.8037505816       26.1091184089
  C         6.8124471140        3.7169998416       26.3660238509
  C         7.6182979211        4.3360116167       24.4309322726
  C         5.9035419243        5.9202508635       25.5486923401
  C         6.9493739546        2.6390755784       25.4708682114
  C         6.2953540381        3.3418961688       27.5971857357
  C         7.5160373052        3.0120539541       24.2704512978
  C         7.9299873364        4.9501211536       23.2141222828
  H         6.1266075379        6.9022382341       25.1374123611
  H         5.6319832497        6.2065500584       26.6188057861
  C         4.6508918850        5.2888059419       24.8121425721
  S         6.4018220654        1.1658835164       26.1379368517
  C         5.9823897662        1.9888972678       27.5862777963
  H         6.0255546559        3.9693262413       28.3167151000
  C         7.8947506656        2.3578600114       23.1100069928
  H         7.9168480194        6.0069667289       23.2501225259
  C         8.3208239753        4.3412102380       22.0604269197
  H         4.8820313009        5.2200797112       23.7466472392
  H         4.4684923047        4.2811228867       25.1828054807
  C         3.5248351491        6.2174035646       24.8827610293
  C         5.5153172274        1.2676948652       28.7887194326
  C         8.4080076719        2.9799305551       21.9816381495
  H         7.8524040947        1.2804967276       23.0750938597
  C         8.8333240318        4.7840562082       20.8664961482
  H         2.9067659294        5.7892226487       24.2097649618
  H         3.8316447554        7.1395810261       24.4745562330
  C         2.7743975088        6.2932563123       26.1929481826
  C         5.6193026631       -0.1187610485       29.0625746300
  C         5.0564842713        2.1550720699       29.8951939060
  C         8.9312294458        2.3452162445       20.7754299934
  C         9.1611934850        3.6601257259       20.1265579095
  S         9.0439046064        6.2875266289       20.1911754539
  H         2.0392783986        7.0299210062       25.8723313301
  H         3.3432787566        6.6525958229       27.0716029042
  C         2.0583910537        4.9658230453       26.5677135550
  N         5.9844990154       -1.0811189836       28.1354790683
  C         5.4798138874       -0.6453526114       30.3464332566
  C         4.7572740641        1.5596749701       31.1157137362
  H         4.7469159856        3.2289732930       29.7849792800
  C         7.9334135675        1.4770189628       19.9502895667
  C        10.3090421353        1.4974257352       21.0191453349
  C         9.6180737236        4.0880199711       18.8827439774
  C         9.5772797200        5.4217387751       18.7408019026
  H         1.5952282440        4.6303004954       25.6300903170
  H         2.8085948494        4.1202733937       26.6899915266
  C         0.9711015528        4.9753082401       27.6470249297
  S         6.2101846339       -2.4945504316       28.9174923650
  N         5.7015566243       -2.0047402026       30.4157720350
  C         5.1535626307        0.1087603475       31.4469183692
  H         4.2722376631        2.1745947242       31.9054017804
  H         8.0840330100        0.4981200421       20.3049084955
  H         8.3594066669        1.4366173184       18.9158262552
  C         6.4546597248        1.7982850978       20.0142140901
  H        10.4579285957        0.8315333132       20.1111614810
  H        10.1850733438        0.6648902967       21.7425698921
  C        11.6081772748        2.3050364182       21.2984866513
  H         9.8674863318        3.3299285617       18.1771500324
  C         9.9856656509        6.0991059798       17.4261217598
  H         0.2746825888        4.0717619386       27.5115552185
  H         0.3397387334        5.9340970613       27.6900879478
  C         1.5486473470        4.8039498100       29.0422791174
  C         5.0870182520       -0.4963452171       32.7372452341
  H         6.3452814649        2.8382970635       20.3759559716
  H         6.0733850419        1.1136888917       20.7470495897
  C         5.7202835445        1.6655439931       18.6510281856
  H        11.3925960842        3.0016477085       22.0713476432
  H        11.8534622788        2.8617947898       20.3303359796
  C        12.8292025553        1.5097302932       21.6821152406
  C        10.0378109476        7.5191282603       17.2397713434
  C        10.1675809895        5.2522931720       16.1705163254
  H         2.2740724830        3.9463702302       29.0130075147
  H         2.2320601601        5.6449898883       29.2115284495
  C         0.5932843292        4.6229484375       30.1534873155
  H         5.3445343786       -1.5542959604       32.7698479539
  C         4.7065779887       -0.0192696530       33.9792856833
  H         6.0083257865        0.7652143799       18.1615511326
  H         6.1621164166        2.5119848587       18.0808119293
  C         4.3164282310        2.1969043396       18.6802273861
  H        12.5967697600        0.8325650042       22.5187308490
  H        13.3405658093        0.9604255507       20.8462981973
  C        13.8871746264        2.4145297081       22.3126196317
  N         9.8488072145        8.4927805836       18.1842645360
  C        10.4471248062        8.1512355279       16.0487903411
  C        10.5511122130        5.9237645765       15.0164217182
  H        10.1525321141        4.1768412430       16.1568314336
  H         0.0669997953        5.5054697559       30.4393601737
  H        -0.1148973031        3.7927450481       29.8059156032
  H         1.2169826808        4.2363788644       30.9858685911
  S         4.4431594056        1.6372528368       34.5379040821
  C         4.5373465773       -1.0796241752       35.0717621402
  H         4.2493826491        3.2185343923       19.2162212301
  H         4.0159965784        2.5209851864       17.6919401979
  C         3.2140086040        1.1499996869       19.0068215798
  H        13.3346531048        2.8799364568       23.1484271937
  H        14.1978301011        3.2301989583       21.6915075113
  C        15.1021740273        1.7177177641       22.8232019727
  S        10.0143026604        9.9666286561       17.5628478444
  N        10.5241039836        9.5054047439       16.0832837381
  C        10.7122488063        7.4093148677       14.8931603311
  H        10.9046673221        5.3546943930       14.1618625249
  C         4.1684580773        0.8540648692       36.0834714350
  N         4.1281306141       -0.4414438566       36.1363413584
  O         4.7596110882       -2.2406973923       35.0243772216
  H         2.2650167604        1.6540085528       19.1572623867
  H         3.5267348355        0.6323186314       19.9201636793
  C         2.9938097554       -0.0362501643       18.0353056648
  H        14.9141696441        1.0801169165       23.6785972475
  H        15.4739773846        1.0060426157       22.0771386159
  C        16.2156412309        2.6966296314       23.3855743762
  C        11.0076203075        8.0963731004       13.6795325302
  S         3.7728367299        1.7186602884       37.5671268244
  C         4.1538748532       -1.1676349603       37.4238046349
  H         2.7571727030        0.3479435741       16.9796365351
  H         3.9433861920       -0.5863844021       17.9832108856
  C         1.7639126146       -0.8882406446       18.5007146109
  H        15.9142400126        3.1576815986       24.3343605275
  H        16.2577489559        3.5291974350       22.6660150153
  C        17.5611559607        2.0479239298       23.6781681320
  H        10.8365164042        9.1312197677       13.6123569815
  C        11.4680806297        7.7248424272       12.4495509847
  H         3.4913679142       -0.7017703613       38.1479091685
  H         3.9373411558       -2.2720568818       37.1857939569
  C         5.5635700383       -1.2451244278       38.0018641828
  H         0.8581396437       -0.3128134995       18.4622105689
  H         1.8246239738       -1.1409543134       19.6229446647
  C         1.7369054010       -2.1404879680       17.6482655267
  H        18.0027286297        2.6257326201       24.4145455456
  H        17.4490585564        1.0144035565       24.0714901497
  C        18.4508666342        2.0131636658       22.4501670560
  S        11.9581465539        6.2130598282       12.0153472676
  C        11.6775650439        8.7843167649       11.4169707264
  H         5.7357505718       -0.8050328977       38.9670922025
  H         5.8327606370       -2.2938837158       38.0983034098
  H         6.2494655933       -0.9343719050       37.2354006919
  H         1.1974340291       -3.0306582708       18.0996736070
  H         2.7865847151       -2.5671002689       17.5539375049
  H         1.3046227105       -2.0881614380       16.6825621307
  H        19.4029633563        1.4834796533       22.7239914232
  H        18.7340722212        2.9798805991       22.0899561165
  H        18.0199195054        1.4010951573       21.6047489636
  C        12.4999082306        6.9304621916       10.5128011640
  N        12.2869373334        8.2441863735       10.3481473171
  O        11.4246892175       10.0036018621       11.5712321680
  S        13.1748774648        6.0644069891        9.1967826754
  C        12.6228713601        8.9406434117        9.0429519240
  H        12.9333136872        9.9904799681        9.2391199721
  H        13.4931272394        8.5611135492        8.5005693408
  C        11.3877581406        8.7049488933        8.1182943924
  H        10.9760535272        9.6518847711        8.1726146755
  H        11.6461929442        8.4658840326        7.1125871471
  H        10.7171313872        7.9122237335        8.4887263092
  H         3.8565504924        1.3080580969       12.8662161941
  C         4.1342373099        2.3731591498       12.9445632434
  H         5.1931091567        2.2312630338       12.8862802259
  C         3.5681586615        3.1591071616       11.8020342439
  C         3.8599011570        2.9125002907       14.3233208235
  C         4.5689181612        3.3345778395       10.6633667467
  H         3.4338560796        4.1749475747       12.1423373953
  H         2.7055579162        2.7189792200       11.4321259655
  H         3.7928542872        2.1413753134       15.0188193855
  H         2.9390710273        3.5260215432       14.2559170160
  H         4.6715214516        3.4990996328       14.6967852733
  C         4.6942322472        1.9223896063        9.9802703374
  H         4.3901166140        4.1456444642        9.9374840080
  H         5.5067582349        3.6827077693       11.0403151353
  C         5.3694479544        2.0308666469        8.5920579418
  H         3.7390494450        1.3172629221        9.9607974914
  H         5.3233621288        1.3585557866       10.5881292801
  C         6.7748456770        2.6421468209        8.5751022660
  H         4.7152368905        2.6462564342        7.9635111341
  H         5.2596306850        1.1027371693        8.0458908469
  C         7.9438065542        1.8581605423        9.2206578399
  H         7.1058350618        2.7091542517        7.5909478802
  H         6.6255514352        3.6819001225        9.0493768229
  C         9.2656871437        2.5932012850        9.2049523782
  H         8.0572599166        0.9027471204        8.6752175817
  H         7.5392140625        1.5434924348       10.2035517914
  C         8.9515083413        3.9665445780        9.8846113860
  C         9.7368349587        3.3743188288        8.0009919226
  C        10.3493313855        1.7801226832        9.8384124428
  C         9.2022210053        5.0954440133        9.1334594608
  C         8.5162642399        4.4063315681       11.2027183773
  C         9.7594234801        4.7275297215        7.9819642931
  C        10.1261545750        2.7853802852        6.8140225624
  H        10.0075003491        1.2119536553       10.6736378460
  H        10.9237439718        1.2000023644        9.0931113158
  C        11.4612797057        2.7068980556       10.3629507002
  S         8.8776196745        6.6357735994        9.9865570734
  C         8.3874350602        5.7338986781       11.3088133311
  H         8.3287236050        3.5723187000       11.8795309450
  C        10.1462985153        5.3731952232        6.8434250484
  H        10.2127762512        1.7062544956        6.8864170930
  C        10.4793162531        3.4293701555        5.7123724931
  H        11.0248173700        3.4395149187       10.9621060361
  H        11.8878761385        3.2310731382        9.5571261950
  C        12.5892587176        1.9839447294       11.1328333099
  C         7.9057502319        6.4692652719       12.5164686288
  C        10.4475250177        4.7945238105        5.6234704035
  H        10.1861717447        6.4535873545        6.8283458644
  C        10.8706275947        2.9881925328        4.4800972975
  H        13.4881399593        2.2176087497       10.6064395849
  H        12.3986570934        0.8805282588       11.1104123276
  C        12.8782992751        2.6177051740       12.5258884318
  C         7.8094712157        7.8756893759       12.7384725195
  C         7.2679282583        5.7020164305       13.6758708741
  C        10.8381373597        5.5055112634        4.3585414397
  C        11.1453420595        4.0854025520        3.6873408351
  S        11.1374457081        1.4995238185        3.7571004060
  H        13.8953935247        2.9996811694       12.6710930500
  H        12.3227568276        3.4751046010       12.6541732595
  C        12.6577461232        1.5547413650       13.5990144819
  N         8.1536081896        8.8925230270       11.7995764127
  C         7.5981813012        8.4261711250       14.0435012286
  C         6.8890011287        6.2857861590       14.8675497721
  H         7.1015916262        4.6603259505       13.4907945963
  C        12.1289208318        6.3682050155        4.4838028499
  C         9.7364490791        6.3093611641        3.6501702194
  C        11.5101841176        3.6558120734        2.3615391741
  C        11.4566610580        2.2892316449        2.2528824336
  H        13.5229766182        0.8975183834       13.6442230029
  H        11.8112454955        0.9501387844       13.4233688479
  C        12.4457926292        2.2578617519       14.9562809555
  S         7.9700984733       10.2954898756       12.5564058401
  N         7.7495383970        9.7882273127       14.0474960024
  C         7.2684963900        7.6647207929       15.1797589626
  H         6.5341337029        5.6345511819       15.6520601912
  H        11.9476728671        7.2663823033        5.1239535325
  H        12.2520191267        6.7593011552        3.4339043216
  C        13.4022888895        5.6091000529        4.9143090221
  H         9.2230216796        6.9807279825        4.3534664268
  H        10.1064988870        6.8725148702        2.7903923130
  C         8.4229012465        5.5838400910        3.2484314845
  H        11.6172553167        4.3448865291        1.4777669673
  C        11.7538018055        1.5141522696        0.9469772309
  H        13.1618289422        3.1247492303       14.9190094619
  H        11.5809176887        2.7387720821       14.9416899556
  C        12.5380451463        1.4537782806       16.1800802458
  C         7.0581793988        8.2495956151       16.4308862638
  H        13.1584057476        5.0507134428        5.8555593720
  H        13.7404193317        4.9299096808        4.0867745397
  C        14.4548310351        6.5189160712        5.4349373425
  H         7.8416898637        5.2551529663        4.1182415108
  H         8.6295796106        4.6902224007        2.6579344597
  C         7.5967270687        6.5201738361        2.3902735953
  C        11.7184549879        0.0541576810        0.7727607975
  C        12.1799481878        2.2473573116       -0.2912064266
  H        13.2300986312        0.5674584601       16.1723240439
  H        11.5822005241        1.0899790208       16.3915107423
  C        13.1033985393        2.3349647314       17.2765279766
  H         7.1493051504        9.3413398314       16.4033297219
  C         6.5758038221        7.8185549863       17.6351424361
  H        14.2178027503        6.8844932847        6.4519889038
  H        14.5380425070        7.3446446259        4.7265348936
  C        15.8620553803        5.8902304826        5.5026323405
  H         7.3514264894        7.3070676881        3.0429519953
  H         8.0314012309        7.0397963229        1.5509481843
  C         6.2687656390        5.8367868154        2.0941556621
  N        11.3869033395       -0.8204328431        1.7767319972
  C        12.0246162062       -0.6150670584       -0.4485645892
  C        12.6087427197        1.5857536919       -1.4116600148
  H        12.2180332298        3.2986200900       -0.1810132506
  H        14.0573473569        2.8082425226       16.9727968355
  H        13.3301220869        1.7899625186       18.1778663027
  H        12.4474123975        3.2084833249       17.5899371450
  S         6.3274998623        6.1125413043       18.1054134737
  C         6.4874292153        8.8511909050       18.7383079141
  H        15.9481193712        4.9803240675        4.8870906088
  H        16.5045597566        6.6044670126        4.9660321932
  C        16.4356257417        5.5522101729        6.8758297869
  H         5.7723778654        5.3427864160        2.9679987368
  H         6.5257143257        4.9499126504        1.4835720587
  C         5.2126536725        6.8041593569        1.4936638075
  S        11.5276843269       -2.3379334554        1.1778639614
  N        12.0636819071       -1.9699894708       -0.3357813666
  C        12.5001108317        0.1107907228       -1.5479527317
  H        12.8562750630        2.1466025256       -2.2761030839
  C         6.0050828307        6.7834393975       19.6906992046
  N         6.0557640808        8.1768756373       19.7833386630
  O         6.6550082045       10.0597391822       18.6074921220
  H        16.3889435729        6.5265865556        7.4048849775
  H        15.8290628237        4.8524596381        7.4512557395
  C        17.8556497822        4.9760568599        6.7334824174
  H         5.7030449797        7.5889939440        0.8956177734
  H         4.5029300431        6.2886331278        0.8150918686
  C         4.3485732622        7.4171671776        2.6767219925
  C        12.9540398556       -0.6084309896       -2.6506245207
  S         5.3292363602        5.8051221358       20.9275045067
  C         5.8845913289        8.8608184404       21.0645864282
  H        18.1672297226        4.9850391162        7.7710718501
  H        17.8266319033        3.9749433618        6.4020205910
  C        18.7738734981        5.8104140283        5.8511335357
  H         4.6602595110        7.1113827416        3.7011307385
  H         3.2850368663        7.1025282877        2.6844315948
  C         4.3548595638        8.9370232679        2.8428692297
  H        12.6931254408       -1.6284383022       -2.6569123017
  C        13.3876743523       -0.2453406592       -3.9183994452
  H         5.3861997887        8.2646679540       21.7786618072
  H         5.2352312508        9.7776646915       20.9013751308
  C         7.3062732605        9.2220076613       21.6209870223
  H        18.7918128147        6.9127170630        6.0335962379
  H        18.6035659561        5.6805491671        4.7645852336
  C        20.1852931003        5.2999052951        6.0773942552
  H         3.6217669410        9.1575483810        3.6392533603
  H         5.3408570555        9.2124078721        3.2155635385
  C         3.9058864965        9.6714376869        1.5620460510
  S        13.8880839596        1.3343974190       -4.5752246703
  C        13.4540098778       -1.2395138595       -4.9694471087
  H         7.4257382653       10.3008539186       21.6749016274
  H         8.0235135189        8.7841710558       20.9571126048
  H         7.4631016335        8.8802869064       22.6196160417
  H        20.5539637940        4.6290077023        5.3151194530
  H        20.7265722265        6.2352614820        6.0664196584
  H        20.2126697742        4.8838422658        7.0242288144
  H         3.4433965131       10.6570201025        1.7393271415
  H         4.6939348441        9.8180781564        0.7859827924
  H         3.1688185659        9.0632617471        1.0588033159
  C        14.1986880111        0.5817116593       -6.1486506489
  N        14.0932626459       -0.7647867135       -6.0463831094
  O        12.9860332357       -2.3644939074       -4.8225129265
  S        15.1593671889        1.3298162992       -7.4546098030
  C        14.2774668805       -1.6869390151       -7.1806804883
  H        14.3451079165       -2.6557317584       -6.7315089903
  H        15.2365694667       -1.4606636949       -7.6507078282
  C        13.0383055144       -1.6569905043       -8.0399955940
  H        12.2004320810       -1.2787721816       -7.5615437066
  H        12.7673750100       -2.7134630934       -8.2983043764
  H        13.1908670573       -0.9559150272       -8.8650745786
