352
 i =   121900, time =    60950.000, E =        98.9555075237
  H        11.4435632052        7.6491004652       32.1347206968
  C        11.1837557214        6.6146261320       32.3070568461
  H        11.7775281336        6.2218691301       33.1099037099
  C        11.8775064982        5.9443884384       31.0504307177
  C         9.7231426310        6.4841969817       32.5779112629
  C        10.8361343556        5.5143094296       29.9822020267
  H        12.5351314531        6.6531961809       30.5837469768
  H        12.5077559106        5.1146848029       31.4247781743
  H         9.2566406709        7.1967055469       31.9356500744
  H         9.4310603250        5.4902247523       32.4492492870
  H         9.4912457743        6.8112510068       33.6133052663
  C        11.5419496831        5.2903431776       28.6154596112
  H        10.0809723683        6.2654468336       29.9145503119
  H        10.5214917676        4.5561372690       30.3478346294
  C        10.8276231195        5.9385588118       27.4985081179
  H        12.5206155743        5.6714338296       28.6485415440
  H        11.5624345468        4.2217956474       28.4207761640
  C         9.5813726843        5.2219049443       27.0884918077
  H        11.4688978099        5.9372747408       26.6417806627
  H        10.5485815960        6.9650037862       27.8316578210
  C         8.4320454523        6.0177520535       26.4490792506
  H         9.9821646955        4.4365920884       26.4284697475
  H         9.1816915110        4.6340864267       27.8867745840
  C         7.3214635886        5.1188729698       25.7481989442
  H         7.9671594391        6.6595988532       27.2011244816
  H         8.8306912395        6.7426015500       25.7309940146
  C         6.9995371376        3.7401492660       26.4026489832
  C         7.8717835963        4.4134554699       24.5104460581
  C         5.9796908757        5.8708586266       25.4056092414
  C         7.3150921530        2.6627414975       25.5654587393
  C         6.5629837696        3.2673793699       27.6716604755
  C         7.8746262493        3.0628157385       24.3827987878
  C         8.3117264768        5.1178699169       23.4334404146
  H         6.1844262692        6.3999568944       24.5233107472
  H         5.7965343710        6.6515092249       26.1140097007
  C         4.7127018017        5.1263209447       25.2596737159
  S         6.9356777392        1.1388266748       26.1974015718
  C         6.3993592130        1.9600176420       27.5818903078
  H         6.4058019397        3.9636522977       28.4097065271
  C         8.3686160859        2.4632246404       23.2510841288
  H         8.2684231394        6.1595097079       23.5316247641
  C         8.7820376486        4.5803857060       22.2522399473
  H         4.6775819207        4.5735427079       24.2636311768
  H         4.6747231059        4.3576591954       26.0156030071
  C         3.4506900531        5.8710155677       25.2935174842
  C         5.8352232215        1.1893260952       28.8103384774
  C         8.7605015254        3.1651436591       22.0848286567
  H         8.4569157345        1.4220317736       23.1149301622
  C         9.2288704872        4.9942495457       20.9714736462
  H         2.6313553747        5.3696886518       24.8000750689
  H         3.6505065833        6.8410223831       24.9141334641
  C         3.0182606315        6.0342956003       26.7679920523
  C         5.8151605816       -0.2080118441       28.9996029403
  C         5.1835554792        1.9948116140       29.8892429157
  C         9.2062707946        2.5040394082       20.8087549059
  C         9.4072362092        3.8813190789       20.1403616733
  S         9.3872266650        6.4971153098       20.1776759539
  H         2.4201550702        6.9308701882       26.8337457958
  H         3.9235809985        6.1735596014       27.3924879048
  C         2.4086869346        4.7574043830       27.3962255541
  N         6.1232962109       -1.1366370773       27.9877195306
  C         5.4843614225       -0.7742540490       30.1570467590
  C         4.7395999833        1.4266051937       31.0570754432
  H         4.9435621102        3.0061054426       29.7033440267
  C         8.0420229904        1.7507673740       20.1228826060
  C        10.5729234510        1.6997223500       20.9137591451
  C         9.7314563141        4.3036031164       18.8568952280
  C         9.7264681930        5.6249437932       18.7310023165
  H         1.9795219685        4.1752067800       26.6208234338
  H         3.2824893294        4.1378629841       27.8429502296
  C         1.3628024868        5.1808057771       28.3085145277
  S         6.1522746130       -2.6381151550       28.6458198238
  N         5.7013795690       -2.2057924378       30.1453420422
  C         5.0089041968        0.0104075460       31.2827751831
  H         4.3046571398        2.0861945090       31.7738854251
  H         7.6019442818        0.9571208592       20.7368134660
  H         8.3175217223        1.3521850279       19.1733704468
  C         6.7518634576        2.6112198186       19.9086987746
  H        10.8266429773        1.3133146953       19.9166158284
  H        10.3859030663        0.8970287717       21.5691360446
  C        11.8040474731        2.5568599355       21.3945246514
  H         9.8905864085        3.5282287918       18.1276936128
  C         9.9964571596        6.3136396584       17.4443863284
  H         0.6213858332        4.3981832169       28.5434356233
  H         0.7133221632        5.8190597774       27.6860463215
  C         1.8488157720        5.8654651686       29.6009535978
  C         4.8761150065       -0.6263104939       32.5732991529
  H         7.0333405954        3.6019734799       19.5116291324
  H         6.3191086152        2.8529636220       20.8738508363
  C         5.7277955864        1.8570190337       18.9868709557
  H        11.5861009680        3.0906835644       22.3364154581
  H        12.0387654808        3.3083014249       20.6032154687
  C        13.0874825551        1.7568807620       21.5817604413
  C        10.0355295627        7.7164797209       17.2978140556
  C        10.1010558402        5.4787099561       16.1666144297
  H         2.8031120560        6.4643600201       29.4383526156
  H         1.0819315959        6.5160697664       29.9470409235
  C         2.1012004075        4.8652966381       30.6712518528
  H         4.7736261170       -1.7146942512       32.4135917902
  C         4.5785368219       -0.1608818403       33.8593605498
  H         5.8458079789        0.7979618853       19.1351276656
  H         5.9702805710        1.9684501665       17.9185747191
  C         4.2615906730        2.2522194813       19.1748123113
  H        13.1129519347        1.1741548680       22.4443585116
  H        13.1687538171        1.0725185857       20.7065074133
  C        14.2107297982        2.7246006125       21.6354379764
  N         9.6721516151        8.6400336461       18.3204695708
  C        10.2676188387        8.3616573160       16.1018410477
  C        10.3379255714        6.1246461791       14.9680146941
  H         9.8897451695        4.3927826528       16.2250522291
  H         3.1538309943        4.4566832289       30.6583888770
  H         2.1563375503        5.3700225913       31.6322911004
  H         1.4058107187        4.0732181448       30.8520762693
  S         4.3684233684        1.5020981319       34.2714232900
  C         4.4928394176       -1.0979942240       34.9470650397
  H         4.1060762326        2.4404247869       20.2172888533
  H         4.0383936624        3.1392667580       18.6836595949
  C         3.2330089853        1.1791367191       18.9121607890
  H        13.9959625765        3.5060232584       22.3560210519
  H        14.2444472864        3.2997488786       20.6568624081
  C        15.5877137360        1.9637623176       21.7835897618
  S         9.8019058134       10.1209964213       17.7364059400
  N        10.2034247084        9.7707244227       16.2340755676
  C        10.5393659582        7.6441503722       14.8621677892
  H        10.3058865367        5.5481411969       14.0622965988
  C         4.1166887125        0.9539096516       35.9415022188
  N         4.2160891353       -0.3899898654       36.0412856686
  O         4.6979073825       -2.3114785854       34.8970586359
  H         2.2671129271        1.6332810261       18.6805067737
  H         3.0529842555        0.4580794909       19.7529881883
  C         3.4982975701        0.2243771726       17.6994956431
  H        15.4209629839        0.9937004734       22.3116155826
  H        15.9870048444        1.6143987184       20.8557670188
  C        16.6815724387        2.8996905044       22.4068684272
  C        10.8661457973        8.4352117160       13.6887073693
  S         3.7086407958        1.9501827872       37.4149415341
  C         4.1949427823       -1.0216990699       37.3336248076
  H         3.6857833622        0.8511517222       16.8159517584
  H         4.3260084112       -0.4710254871       17.9495475677
  C         2.2869228990       -0.6607558154       17.2686328543
  H        16.1955975356        3.5501245809       23.0419809261
  H        17.1644087027        3.5330813693       21.6641328878
  C        17.8191546690        2.1723219349       23.0198233312
  H        10.7006901398        9.5225342697       13.7877666992
  C        11.1848066375        8.0907718613       12.3872192896
  H         3.2966663755       -0.6932521373       37.8486349590
  H         3.9470383008       -2.1071405550       37.2017890036
  C         5.5180522930       -0.8349757304       38.0615754912
  H         2.0428322909       -0.3303567034       16.2266064346
  H         1.3575241228       -0.4277568746       17.9027525231
  C         2.5857954616       -2.1787707012       17.3078464768
  H        18.0774048721        1.2659179336       22.4870881365
  H        18.8136622924        2.6571743519       23.1106119848
  C        17.4151727540        1.8378066518       24.4127105569
  S        11.5398232121        6.5932266618       11.8288844461
  C        11.3102915659        9.1409018064       11.3398562221
  H         5.3769847669       -1.1808738886       39.0624453828
  H         6.4676459156       -1.3377016551       37.7602429753
  H         5.8224884660        0.2312255905       38.0530361354
  H         2.6686950467       -2.4028373862       18.3488882110
  H         3.4271981389       -2.3865979736       16.5593137712
  H         1.8512055682       -2.7694087958       16.8131652614
  H        16.3621881934        1.5040965860       24.3730530631
  H        17.4121550222        2.8360734809       25.0088206849
  H        17.9799556145        1.2034499205       25.0275568087
  C        11.7995901736        7.2624989240       10.2861806087
  N        11.7935592635        8.5908876113       10.1974707359
  O        11.0254089943       10.3072777344       11.5631387779
  S        12.3481779586        6.4006170034        8.8693127936
  C        11.9728404217        9.3895818112        9.0122243187
  H        12.2312012155       10.4273684956        9.2064085882
  H        12.6626377606        9.1748030402        8.2200868624
  C        10.5477910176        9.5669365564        8.3755739254
  H        10.5171088700       10.5784104288        7.9409102697
  H        10.4193710530        8.9296779154        7.5326972903
  H         9.7010643120        9.2824538108        9.0374251906
  H         3.6464871239        3.8225771432       12.3462029803
  C         3.0175769492        3.0481890385       12.5301376924
  H         2.1669966978        3.4902442254       13.1413860347
  C         2.4187055788        2.5397387825       11.2065943291
  C         3.8698351385        1.9815869422       13.3017687978
  C         3.3073960801        2.7475023296        9.9817237525
  H         1.5374078478        3.2397656715       11.0736027377
  H         2.0878270300        1.5148360493       11.2987795684
  H         4.0072336369        2.1494708275       14.3144853833
  H         4.8755688173        1.7872127046       12.8231699502
  H         3.3184783527        1.0017622258       13.1131861772
  C         4.1398626839        1.4574047421        9.7588636291
  H         2.6542831144        3.0151741746        9.1259076915
  H         4.0398676855        3.5462525525       10.1232774345
  C         4.8964171253        1.4860198732        8.4659669621
  H         3.5798058736        0.5419155612        9.6889352152
  H         4.7941837479        1.3190191493       10.5927900616
  C         6.1966769192        2.3478874922        8.6371678055
  H         4.2003411514        1.9184807002        7.6574310045
  H         5.1397813589        0.5300699679        8.0248420946
  C         7.5197369027        1.6312339767        8.9100147754
  H         6.2168061873        2.8261722596        7.6978889905
  H         6.0008367527        3.0630985036        9.4627671356
  C         8.8200839603        2.5469841919        9.1762968521
  H         7.7028701621        0.9940824799        8.0619290799
  H         7.4461573842        0.8765373838        9.7046209485
  C         8.5000277267        3.8867412957        9.8596734966
  C         9.2855451218        3.3123992602        7.9077960647
  C         9.9173933121        1.8921820891       10.0157794654
  C         8.8890831436        4.9775027388        9.0777381814
  C         7.8455660520        4.2300420866       11.0456864207
  C         9.2455736104        4.6523699523        7.8099370845
  C         9.7973779958        2.7498947432        6.7838434807
  H         9.5194527367        1.5626471651       10.9718789672
  H        10.2103277785        0.9833142280        9.5594098753
  C        11.2517383963        2.6238344403       10.3633185458
  S         8.5050352796        6.4854927800        9.8295230666
  C         7.8357364557        5.5897822631       11.2030941689
  H         7.5559244148        3.4414969886       11.6761723662
  C         9.6530597381        5.3032691371        6.6874257271
  H         9.8139308793        1.6816200494        6.8154765556
  C        10.0867242724        3.3627639524        5.5991795642
  H        10.8897584326        3.4610528330       10.9360393113
  H        11.8694671689        2.9056894505        9.5712023547
  C        12.2839798729        2.0491024328       11.2666190830
  C         7.3790239692        6.3055329378       12.4777507478
  C         9.9688502837        4.7186984121        5.4777023899
  H         9.5998549597        6.3439553123        6.7510631757
  C        10.4897177417        2.9478643725        4.3409238167
  H        13.2299637854        2.6989787267       11.2566646350
  H        12.6376008643        1.0240682011       11.0384084191
  C        11.8111870432        2.0631195143       12.7640453878
  C         7.3731490343        7.7090058943       12.7257110999
  C         7.1026832138        5.4572703642       13.6557596067
  C        10.4889985866        5.3370499661        4.2160287358
  C        10.7322959307        4.0281585650        3.5211435746
  S        10.8235574460        1.4279307575        3.6044676382
  H        11.0747360924        2.7784275264       13.0268354327
  H        11.2326614726        1.0936186289       12.9643704048
  C        12.9637148951        2.1059871576       13.7325135925
  N         7.7635882433        8.6619593472       11.8568630354
  C         7.1358609456        8.2012669227       14.0131201412
  C         6.7961923953        5.9517124924       14.9305261099
  H         7.2559890307        4.4052908728       13.5738583437
  C        11.7710084373        6.0792379014        4.5856122354
  C         9.4019307452        6.2307731082        3.5654376025
  C        11.1758411347        3.5911845990        2.2915586690
  C        11.2265073734        2.2537358258        2.1836983297
  H        13.7286019988        2.9377463652       13.5363484797
  H        13.5738952748        1.2095071164       13.7639736133
  C        12.4234128819        2.2531748628       15.1129421251
  S         7.5506451917       10.1164606993       12.5612856467
  N         7.1247445659        9.5953161134       14.0313212034
  C         6.8950228966        7.4137960739       15.1876327754
  H         6.6646064797        5.2445257029       15.7302498689
  H        11.6301694889        6.7196869420        5.4353173109
  H        12.1546003875        6.7450116360        3.7640185279
  C        12.9599047690        5.2338570456        4.9697431749
  H         8.8793547302        6.8968009355        4.2910836486
  H         9.8726169604        7.0081265852        2.9374114942
  C         8.3472118254        5.4406434661        2.8712941753
  H        11.3786777159        4.2438180862        1.4895662287
  C        11.6522749740        1.5154914380        0.9125617862
  H        12.1556585394        3.3239980911       15.2342988116
  H        11.5885042438        1.5983460102       15.1397927352
  C        13.3252031554        1.8466288418       16.2972040963
  C         6.7436172577        8.0908420340       16.4739041720
  H        12.6255861634        4.4582962769        5.7184092379
  H        13.2458798169        4.6768824192        4.0762528587
  C        14.1174467169        6.1117786897        5.6636097371
  H         8.0555949642        4.6911947271        3.5701032958
  H         8.8061218495        4.9114099696        2.0048521841
  C         7.1732012374        6.3799997399        2.5385901554
  C        11.7511510293        0.0855249645        0.7508269757
  C        12.0483613362        2.3310560050       -0.2773445482
  H        14.2888027623        2.2751112635       16.2673245296
  H        13.5775110975        0.8242683376       16.1846303296
  C        12.7435857993        2.1871183625       17.6645653485
  H         6.9209338144        9.1663411975       16.5149458538
  C         6.4398471772        7.7104595143       17.7261164965
  H        13.7613399680        6.9467732661        6.2518826217
  H        14.7083043308        6.6083400561        4.8621058402
  C        14.8850810269        5.2023932453        6.5556049632
  H         6.9068499062        6.9654183349        3.4206945477
  H         7.5155667890        7.1748079911        1.8341452515
  C         5.9491729691        5.6087745776        1.9852096656
  N        11.3347370131       -0.7684760822        1.6776836723
  C        11.9474700545       -0.4987525964       -0.4558165150
  C        12.2448143708        1.7275170157       -1.4993095614
  H        12.2383196948        3.4136123841       -0.2218509892
  H        11.6757169945        1.9557143604       17.7616875531
  H        12.6958443841        3.2561923440       17.8717948534
  H        13.2011378681        1.6526148145       18.4456868854
  S         6.0588304412        6.0940800515       18.2163150932
  C         6.2894666543        8.7333833763       18.7547441771
  H        14.2966360826        5.0454912430        7.4264140522
  H        15.0568172721        4.1922243366        6.2399226852
  C        16.2818842698        5.7527971978        6.7623723676
  H         5.6382413279        4.9049151590        2.7800477534
  H         6.4326030202        4.8827894010        1.2544736783
  C         4.7226639224        6.4005406015        1.6411937863
  S        11.6191099372       -2.3506940518        1.1722356781
  N        11.9956978168       -1.9211118758       -0.3812221061
  C        12.1880995414        0.3132119027       -1.6533476877
  H        12.4709167571        2.3352801786       -2.3367844628
  C         5.8291508470        6.7938265121       19.8319400946
  N         5.8925855943        8.1509911327       19.9126062055
  O         6.3827649248        9.9510963958       18.5662431368
  H        16.6553852886        6.0295219828        5.7851268195
  H        16.1871414680        6.6220741897        7.4425648044
  C        17.2005805256        4.6791236329        7.4117543946
  H         5.0480091581        6.9991643912        0.7982538173
  H         3.8938743584        5.7742083321        1.1986429959
  C         4.1836018236        7.4223430393        2.7221618464
  C        12.4951438812       -0.3671450332       -2.9060810719
  S         5.5584815287        5.8205060582       21.3161636613
  C         5.9008563667        8.9059597691       21.1211822903
  H        16.8829267779        4.5856170417        8.4253398715
  H        17.0539378322        3.7044671270        6.9474192445
  C        18.6680434466        5.1981957243        7.3547452722
  H         4.7282987484        7.2869084033        3.6849872226
  H         3.1916283731        7.2550549198        3.0078182563
  C         4.4078666133        8.8077065734        2.1295025489
  H        12.0346358111       -1.3001646990       -2.8453385628
  C        13.1375318503       -0.0998326602       -4.1274888883
  H         5.2161336433        8.4279987456       21.7695719675
  H         5.4802647515        9.9073556940       21.0471851322
  C         7.2226926213        8.9157029667       21.8643925819
  H        19.2746992390        4.7773296902        8.1741512846
  H        18.6682969072        6.2407328757        7.5047409537
  C        19.3396484812        4.9380599179        5.9879168435
  H         4.4073315478        9.5797249112        2.9432265444
  H         5.3326531430        8.9414140934        1.5776812149
  C         3.3125815844        9.1332709584        1.0918491957
  S        13.9944748743        1.2945760866       -4.5727687104
  C        13.1353211660       -1.1254540942       -5.2281317527
  H         7.9979678527        9.4976932347       21.4204634537
  H         7.6746669224        7.9774711459       22.0101891837
  H         7.1075880772        9.4232845370       22.8519980297
  H        18.7033649579        4.5782642215        5.2565119511
  H        19.8512582911        5.8223715888        5.5943391198
  H        20.1152519620        4.1406910694        6.0330611156
  H         2.3235106194        8.7298280986        1.3609995891
  H         3.1634638870       10.2006475081        0.9006628760
  H         3.6330448280        8.6348037985        0.1807215111
  C        14.2701879269        0.5965894426       -6.1953365173
  N        13.7976737789       -0.6439700237       -6.3038969401
  O        12.4906781050       -2.1637259224       -5.1226547351
  S        14.7957543110        1.4418864154       -7.6480669572
  C        13.7302605844       -1.4291736098       -7.5791066513
  H        13.7354954662       -2.4547663990       -7.3151385606
  H        14.4719277323       -1.1030859258       -8.2980929490
  C        12.4246498240       -1.1525029520       -8.3055347319
  H        12.5596966666       -1.4177188839       -9.3587195795
  H        12.0199260591       -0.1541312544       -8.2017192184
  H        11.6197158789       -1.8293855627       -7.9796173066
