352
 i =   122900, time =    61450.000, E =        98.6514146385
  H        10.8140485807        7.9826576180       31.7170733774
  C        11.3948945481        7.1549754203       32.0471303219
  H        12.0564285719        7.7362576376       32.6266821529
  C        12.0467244344        6.3948718633       30.8713998612
  C        10.5797740589        6.1284094166       32.9930876603
  C        10.9940027264        5.8984580248       29.8456497665
  H        12.7414712988        7.0971436760       30.3733090758
  H        12.6245207121        5.5146364317       31.2098642860
  H        11.2320885565        5.5351349157       33.6744760055
  H         9.7392914885        6.5433694473       33.5534105986
  H        10.1868233693        5.3224660726       32.3485962923
  C        11.5510883757        5.5474757338       28.4493031264
  H        10.1772671240        6.6621874791       29.7568047916
  H        10.4937965178        5.0887784310       30.3293002591
  C        10.7481255903        6.2906557059       27.4372244693
  H        12.5203492167        5.9910778283       28.4223908668
  H        11.6248454944        4.4897127557       28.3484567012
  C         9.6211616391        5.4233561720       27.0251253913
  H        11.4352239561        6.5432702157       26.5986221941
  H        10.3486792525        7.2347658125       27.6892438534
  C         8.5999759331        6.2175241711       26.1626350618
  H         9.9955262270        4.6196806061       26.3952498198
  H         9.1902784414        4.9821864551       27.9385182345
  C         7.4853372793        5.3437470050       25.6083569098
  H         8.1884051830        7.0272200563       26.8084432519
  H         9.2116225393        6.6201425295       25.3542747099
  C         7.1043362844        4.1060797691       26.3375558537
  C         7.9527251329        4.6511661592       24.3979812433
  C         6.1727017888        6.1771073926       25.4209151976
  C         7.3240061786        2.9756749985       25.5807999232
  C         6.5252894364        3.8258701510       27.5746605853
  C         7.8258391211        3.3370884801       24.3684940704
  C         8.3168950046        5.2865374106       23.2507943101
  H         6.4770753565        7.0484519449       24.8494514072
  H         5.8195018614        6.4421564369       26.4578241512
  C         4.9763202380        5.4806090668       24.6819383580
  S         6.8484052331        1.5387633463       26.3072906127
  C         6.3548254714        2.5001392959       27.6912785844
  H         6.3821262518        4.5424116114       28.3177117858
  C         8.1604392324        2.6480491874       23.2004967090
  H         8.5372162388        6.3334686334       23.2328905211
  C         8.5605036559        4.6659206177       22.0737357988
  H         5.2086747907        5.3548326921       23.6147859310
  H         4.6460425663        4.5525881219       25.0497296072
  C         3.6711250947        6.1979983435       24.8088924432
  C         5.8381930085        1.8459042872       28.9055442712
  C         8.5405843255        3.3392061347       21.9996164360
  H         7.9972725324        1.5227413484       23.0644493493
  C         8.9373293639        5.0379500158       20.7832762514
  H         3.0695547970        5.5756648893       24.0655023105
  H         3.6687201900        7.2340739913       24.4874284132
  C         2.8688876856        6.2206903215       26.1059546456
  C         5.7995675213        0.4341384871       29.1452858968
  C         5.2685915590        2.7283003356       29.9780625864
  C         8.9512589223        2.6402206773       20.6967178086
  C         9.0547464546        3.9126652106       19.9548683203
  S         9.0728878686        6.5267722744       19.9919292863
  H         1.9159410722        6.6769584059       26.0264308534
  H         3.3242463850        6.9156397955       26.7937533774
  C         2.6168202310        4.8452746988       26.7999135927
  N         6.0964958523       -0.5964120502       28.2725785727
  C         5.4870117437       -0.0915501136       30.3959626647
  C         4.9292173519        2.2013633516       31.1697616889
  H         5.0243928997        3.7685660484       29.6151351329
  C         7.8658019516        1.6621166063       20.0980205971
  C        10.3333994272        1.9246620360       20.8289431324
  C         9.3686712709        4.2877267876       18.6506978578
  C         9.4802555757        5.6834231353       18.5226221278
  H         2.4832868870        4.0733160819       26.1006325192
  H         3.5072849472        4.6073432711       27.4249658650
  C         1.4794761398        4.6809102712       27.7532219491
  S         6.0596579962       -2.0264681073       29.0382296449
  N         5.6535306477       -1.5002223719       30.5109171444
  C         5.0577217940        0.7329887995       31.5183476465
  H         4.5624884402        2.8313258786       31.9271624918
  H         7.9028947423        0.6955018622       20.5704984895
  H         8.0975954910        1.4900192036       19.0177163769
  C         6.4779524438        2.3566957391       20.1240285824
  H        10.5471072446        1.3415116845       19.9860055923
  H        10.2757084390        1.2669024691       21.6314910410
  C        11.5029280204        2.8373043476       21.1153448263
  H         9.5816022257        3.4690747221       17.9411493975
  C         9.8818490557        6.4431851845       17.3081615849
  H         1.7319732601        3.6847146098       28.1112099420
  H         0.5158414298        4.7665440645       27.1945920756
  C         1.4243967595        5.6251441134       28.9728734974
  C         4.8785376816        0.0322400920       32.7457435050
  H         6.5201029207        3.3094169997       19.5272250479
  H         6.2214517944        2.6255748831       21.1396711013
  C         5.3978698463        1.4641497011       19.5554783214
  H        11.3015277209        3.5340303383       21.9101254727
  H        11.6561583914        3.5220381043       20.2982036907
  C        12.7976141429        2.0449457512       21.4150587560
  C        10.0539602067        7.8315340117       17.0555743192
  C        10.0726222769        5.6342517320       15.9975464315
  H         1.4019857327        6.6656522080       28.7319931089
  H         0.4923024327        5.4423390313       29.5135089511
  C         2.4508815200        5.4076757268       30.0020194942
  H         4.9945498575       -1.0505342773       32.6495369774
  C         4.6563616685        0.3726982452       34.0322084268
  H         4.7360284191        0.9689045110       20.3533073702
  H         5.9889042430        0.6295894290       19.1011253222
  C         4.6143825620        2.2167355133       18.5133215435
  H        12.7541077813        1.6149775924       22.3640828622
  H        12.9923720878        1.2980187602       20.6284115592
  C        13.9637027826        2.9624652466       21.4571387680
  N         9.8151335682        8.7811499590       18.0212774934
  C        10.4073597820        8.3998146312       15.8791255639
  C        10.3695205341        6.2306402825       14.7667450856
  H         9.9441196525        4.5888495001       16.0500079475
  H         2.1207762488        5.6126265885       31.0046337794
  H         2.7665715691        4.3732196300       30.0714607393
  H         3.1381474387        6.1706284808       29.8424071866
  S         4.5571260178        1.9334506776       34.6857955048
  C         4.5142869591       -0.7082200843       35.0268238506
  H         4.4240133558        3.2817185411       18.7790957008
  H         5.1618278470        2.1959319362       17.5847861750
  C         3.2630653655        1.5584621429       18.2397102465
  H        13.8866340096        3.6146955627       22.2972913568
  H        14.0184695521        3.4703544307       20.4897088457
  C        15.2317213312        2.1072344205       21.5870177414
  S        10.0476463559       10.2489855858       17.3147699021
  N        10.6706646247        9.7553940040       15.9483991661
  C        10.5086932247        7.6843424051       14.6309535517
  H        10.5378866583        5.5709872176       13.9003225871
  C         4.3967665513        1.1005169183       36.2584154618
  N         4.2838892700       -0.1913983262       36.2158901181
  O         4.6176327272       -1.9295216029       34.7791178903
  H         2.8954081207        2.1428383317       17.3850720480
  H         2.5817592182        1.9036574952       19.0627298155
  C         3.0808059386        0.1488660999       17.7197225786
  H        15.0296651830        1.1990583641       22.2436329354
  H        15.4205939709        1.6713354592       20.5955674641
  C        16.4789134622        2.9336382171       22.0493232761
  C        10.8670093416        8.4090214825       13.4731882593
  S         3.9688353287        1.8685709608       37.8264448202
  C         4.2037200556       -1.0958773337       37.3968088689
  H         2.5534453152        0.1599996210       16.7720900540
  H         4.0088720811       -0.3158444311       17.5904001040
  C         2.2159308710       -0.5406407420       18.7062409315
  H        16.1040911009        3.5433879097       22.7884249167
  H        16.8445607584        3.5988104744       21.2326205334
  C        17.5851310172        2.1124682525       22.7228201215
  H        10.4589706039        9.3659632291       13.4437387191
  C        11.5471115721        8.1213015441       12.2924669246
  H         3.7166328701       -0.6138010806       38.2348721396
  H         3.5575754417       -1.9751754512       37.2194256120
  C         5.6500515891       -1.3816983474       37.9220957120
  H         1.2960750316        0.0051861511       18.9226816038
  H         2.6062240657       -0.6064821991       19.7511797008
  C         1.7736552977       -1.9297996061       18.3356636490
  H        17.7859428852        1.1994009196       22.1583012142
  H        18.6176182128        2.5628493862       22.7741353897
  C        17.1482225673        1.8905236006       24.1895145919
  S        12.2160401872        6.5788867103       11.7549881969
  C        11.6297448655        9.1995773488       11.2651854711
  H         5.8073738785       -0.6307437144       38.6761230453
  H         5.6648855523       -2.4206655352       38.2953131096
  H         6.4338764783       -1.2620894555       37.1886322597
  H         2.5548663611       -2.6475663150       18.4625636999
  H         1.6000373935       -1.9721237277       17.2477713128
  H         0.9405248317       -2.3845444226       18.9000195919
  H        16.1441081601        1.4466944244       24.3170793325
  H        17.1768377235        2.8419869066       24.7594373416
  H        17.7554554125        1.1719829754       24.6858311999
  C        12.6616829339        7.4267156612       10.2343953266
  N        12.2913903571        8.8037453812       10.1634178715
  O        11.2232283689       10.3265014483       11.4768796883
  S        13.3599726978        6.7354535752        8.7353103144
  C        12.5415103299        9.6271592370        9.0002185076
  H        12.9043354838       10.5922762196        9.2734591019
  H        13.3353602801        9.1983379170        8.4790064967
  C        11.3046501453        9.7162921203        8.0627933841
  H        11.7669038051        9.6380325722        7.0707856752
  H        10.6114591076        8.9182274199        8.1911638174
  H        10.8039808501       10.6934270874        8.2653186998
  H         3.6780318336        3.4053850127       12.1875579607
  C         3.7237292711        2.3812844863       12.3409605542
  H         2.9825481518        2.1222603030       13.0932078095
  C         3.3715395243        1.5494051617       11.1061341534
  C         5.0726843861        1.9907892033       12.9016585593
  C         3.6574246425        2.1438442070        9.7247604470
  H         2.3342361457        1.2502532285       11.1916971413
  H         3.7427389581        0.5842622783       11.2906678568
  H         5.4130922680        2.7727633133       13.5832658370
  H         5.7526973810        1.8423968285       11.9796024713
  H         4.8278421371        1.0830709186       13.4734596343
  C         4.6486826621        1.1466241138        9.0623649464
  H         2.8106432786        2.2696506534        8.9888663583
  H         4.0168908827        3.1796816913        9.7466727129
  C         5.5216087268        1.7692834411        7.9415095497
  H         4.1567045889        0.1804269089        8.8243852981
  H         5.3493506298        0.7580772411        9.8096818815
  C         6.6737534520        2.6964303607        8.3654357061
  H         4.8359070663        2.1524803370        7.1771339952
  H         5.8509730871        1.0000974794        7.3920122979
  C         8.0093499675        1.9804072682        8.6432682207
  H         6.8678587822        3.3706375008        7.5746872087
  H         6.4144565590        3.3349950651        9.2126430479
  C         9.1764271999        2.8715245234        9.0039172051
  H         8.3622051992        1.4379207258        7.7576556427
  H         7.8556004282        1.2291583063        9.4953858707
  C         8.8089513580        4.2177130928        9.7685221436
  C         9.6317346635        3.6709789142        7.8132567905
  C        10.2592502043        2.1361094682        9.8207588724
  C         9.0959014923        5.3529655496        8.9981133794
  C         8.3161524569        4.4906331340       11.0474370318
  C         9.5804550065        5.0275902222        7.7444548699
  C        10.2524025990        3.0620623276        6.7426657136
  H         9.9128937074        1.7521045205       10.7797922924
  H        10.4581469292        1.3034127558        9.1624050247
  C        11.4934551760        3.0297988817       10.2694580694
  S         8.6913278074        6.8571911190        9.8188876922
  C         8.1524373557        5.8699726820       11.1976997798
  H         8.0355295292        3.6963761813       11.6894053288
  C         9.9663012706        5.7015622029        6.6169273242
  H        10.5244026623        1.9833644939        6.8227780458
  C        10.4642749742        3.7036176612        5.5412403001
  H        11.0674153700        3.8412007619       10.8428292358
  H        12.0624285538        3.3175875254        9.4128998635
  C        12.4480850782        2.2873629212       11.2470338525
  C         7.7212438725        6.5329358462       12.4134403270
  C        10.4073445526        5.0484665992        5.4517351683
  H         9.8268776408        6.7633330318        6.5009393647
  C        10.8318724134        3.3073781849        4.2629645745
  H        13.3824421623        2.8567767409       11.2417355620
  H        12.6227504681        1.2485435573       10.8795472545
  C        11.8700526673        2.2736229716       12.6712329865
  C         7.6140740670        7.8940834466       12.6808607355
  C         7.3391400043        5.6821150357       13.5855994458
  C        10.8168950338        5.7313827177        4.2187039068
  C        11.0598620308        4.3884343538        3.4717265250
  S        11.0556029233        1.8084786964        3.5187989831
  H        11.1367867040        2.9880707145       12.7377745895
  H        11.2416158932        1.4702919126       13.0042102640
  C        12.8885001328        2.6287977340       13.7993061181
  N         7.8497426773        8.9505382527       11.7730308891
  C         7.2803674866        8.3867039064       13.9565814846
  C         6.9292741542        6.1645799020       14.8154220512
  H         7.3767072504        4.6287438711       13.5551916078
  C        12.1878546853        6.4937906605        4.3342302885
  C         9.6145257352        6.5239000072        3.5965242997
  C        11.4288504473        4.0218999000        2.1876944197
  C        11.4322920846        2.6611103239        2.0383617696
  H        13.1556185061        3.7247846090       13.6133446499
  H        13.8483020345        2.1457737971       13.8406394921
  C        12.3100836654        2.6331941676       15.2046153773
  S         7.8177378453       10.4060815103       12.5126012149
  N         7.3035636655        9.7685677835       13.9730179618
  C         7.0074864435        7.6380302446       15.0950516794
  H         6.6139167257        5.4740579223       15.5620459238
  H        12.1755021600        7.2015788947        5.0983172188
  H        12.5203497115        7.0248995653        3.3997802979
  C        13.3698481875        5.6252583856        4.6672554634
  H         9.2116056575        7.4013096795        4.1222883761
  H         9.9499707962        6.8991614745        2.6153950040
  C         8.3222445046        5.6413410121        3.4258888918
  H        11.7041186083        4.7278794191        1.4187602180
  C        11.6891066902        1.8981248576        0.7669399194
  H        11.8179459080        3.5799116566       15.4358449578
  H        11.6161331564        1.7862567416       15.3370580623
  C        13.2946739567        2.5398099060       16.3281030775
  C         6.7102060323        8.2864194498       16.3368997843
  H        13.0805261874        4.9893797927        5.5296811342
  H        13.4782604911        4.8553393023        3.9370851663
  C        14.6507205653        6.2846368546        5.1219105538
  H         7.8136442768        5.3663153667        4.3460160101
  H         8.4389618955        4.7147709536        2.8176068788
  C         7.3928643564        6.3625918118        2.5189412264
  C        11.8370944985        0.5191732178        0.5693888045
  C        12.1276398200        2.6755105470       -0.4556288843
  H        13.9462857288        3.4038656069       16.2619446772
  H        14.0361906041        1.7167858193       16.2236790411
  C        12.6813286390        2.6861201352       17.7124590401
  H         6.7530853759        9.3820458772       16.2346576130
  C         6.4310079946        7.8556865104       17.6069153932
  H        14.3021850756        6.8995544578        5.9269796627
  H        15.0742237873        6.9788431622        4.3581523459
  C        15.7611179616        5.2981900151        5.5126476315
  H         7.1643903894        7.3609048429        2.8048955675
  H         7.6888397894        6.3758237282        1.5913781573
  C         6.0709423119        5.6885216721        2.6000234096
  N        11.7019080577       -0.4402824705        1.5721196392
  C        12.2078859591       -0.0690828547       -0.6320233724
  C        12.4023474137        2.0984261666       -1.6521213891
  H        12.2645900984        3.6724432651       -0.4279255271
  H        11.9757984574        1.8736734367       18.0473937393
  H        12.1644649952        3.6400045624       17.8122807645
  H        13.4373243439        2.6008927940       18.4575166100
  S         6.1067534647        6.2585379378       18.0168486368
  C         6.3928457230        8.8711834727       18.6844823609
  H        15.4063173143        4.4853231283        6.1353697315
  H        16.1012573816        4.8273101486        4.5551833915
  C        16.8626184209        6.0342084358        6.1778091446
  H         5.6730660215        5.7799893376        3.5850191895
  H         6.1429317374        4.6167349746        2.3093080751
  C         4.9695355236        6.2340423652        1.6886047719
  S        11.9398435640       -1.8888902034        0.9790534539
  N        12.3752370589       -1.4359392860       -0.4759379672
  C        12.3581619071        0.6311107771       -1.8275587773
  H        12.7752632751        2.7061817917       -2.5055395937
  C         5.8651719786        6.9674582377       19.6289009654
  N         6.0093390125        8.2913101018       19.8030913356
  O         6.6045716674       10.0144162125       18.4237435843
  H        17.4916938614        6.4828512376        5.4323451533
  H        16.4774339618        6.8470592042        6.7809824758
  C        17.5720384878        5.0966264220        7.1238092287
  H         5.3191429316        6.1169397515        0.6696728632
  H         4.0779589005        5.6361994268        1.8662735970
  C         4.5890104347        7.7056541949        1.9256108935
  C        12.7294084562       -0.1567250437       -2.9832915238
  S         5.1850498518        6.0472098458       20.9748234092
  C         5.8365333780        9.0313239452       21.0194203876
  H        16.9089812610        4.4647214219        7.6807285185
  H        18.1634268192        4.3764131419        6.5539207895
  C        18.5615284632        5.8291101253        7.9144310498
  H         5.1355597236        8.1216872501        2.8128046468
  H         3.5908368366        7.7296561429        2.2117339661
  C         4.6246101149        8.4527353841        0.5508672250
  H        12.3015062786       -1.1732489515       -3.0476941498
  C        13.3528808108        0.2580407791       -4.1219997955
  H         4.9707991765        8.7057768025       21.5159071608
  H         5.8522465804       10.1189834178       20.8779185078
  C         6.9898042647        8.8670184115       21.9726420218
  H        18.8528757096        5.2150649300        8.7868622661
  H        18.1455840698        6.7598916316        8.3127338542
  C        19.7998251521        6.0043586872        6.9604630327
  H         5.7381614469        8.4161162399        0.3199271815
  H         3.9445989502        7.8730212232       -0.1343199735
  C         3.9610568528        9.7636506452        0.6042955849
  S        14.2029845319        1.7048708418       -4.4573533191
  C        13.4362415090       -0.7993976044       -5.1275645906
  H         7.8174368132        9.0027743164       21.3361312595
  H         7.0961782533        7.9160044007       22.3923575395
  H         7.0259372136        9.7559854106       22.6198073662
  H        19.5201742527        6.5039304728        6.0704588614
  H        20.7337592740        6.4390625380        7.3939074374
  H        20.2173987152        5.0352130327        6.5627453466
  H         4.0065196706       10.0336364871        1.6382176401
  H         4.4273791320       10.6304683019        0.0671117019
  H         2.9176345278        9.7121955141        0.3038615299
  C        14.4431760771        1.0129359913       -6.0581284405
  N        14.1376096481       -0.3166673393       -6.1478432948
  O        13.1741108282       -2.0267297114       -5.0314815383
  S        15.3921809066        1.6447141111       -7.3786551785
  C        14.4280636699       -1.1544289459       -7.3207935258
  H        14.4036250780       -2.2148249506       -7.1411834964
  H        15.4271133807       -0.8666599826       -7.5240378059
  C        13.3625979249       -0.9016765274       -8.3453635291
  H        12.8862543577       -1.8682000435       -8.4921729774
  H        13.7438209883       -0.6894474130       -9.3463992325
  H        12.6549600411       -0.0933138327       -8.0606263505
